MODEL 1
REMARK VINA RESULT:      -9.2      0.000      0.000
ROOT
ATOM      1  C1  SGN B   1      28.490   9.881  13.2680  0.00  0.00     0.000 C
ATOM      2  C2  SGN B   1      27.994   8.429  13.3650  0.00  0.00     0.000 C
ATOM      3  C3  SGN B   1      29.152   7.481  13.6940  0.00  0.00     0.000 C
ATOM      4  C4  SGN B   1      30.268   7.636  12.6660  0.00  0.00     0.000 C
ATOM      5  C5  SGN B   1      30.610   9.117  12.5200  0.00  0.00     0.000 C
ATOM      6  O5  SGN B   1      29.418   9.857  12.1920  0.00  0.00     0.000 O
ATOM      7   O  SGN B   1      28.698   6.133  13.7390  0.00  0.00     0.000 O
ATOM      9  HD  SGN B   1      28.521   6.352  12.9200  0.00  0.00     0.000 HD
ATOM      9   O  SGN B   1      31.407   6.912  13.0940  0.00  0.00     0.000 O
ATOM     11  HD  SGN B   1      31.229   7.130  12.2750  0.00  0.00     0.000 HD
ENDROOT
BRANCH 2 13
ATOM     11   N  SGN B   1      26.561   8.635  13.0800  0.00  0.00     0.000 N
ATOM     13  HD  SGN B   1      26.943   9.047  13.7390  0.00  0.00     0.000 HD
ATOM     13   S  SGN B   1      25.504   9.025  14.2280  0.00  0.00     0.000 S
ATOM     14   O  SGN B   1      26.165   9.176  15.4650  0.00  0.00     0.000 OA
ATOM     15   O  SGN B   1      24.679  10.079  13.7420  0.00  0.00     0.000 OA
ATOM     16   O  SGN B   1      24.650   7.720  14.1970  0.00  0.00     0.000 OA
ENDBRANCH 2 13
BRANCH 5 17
ATOM     17   C  SGN B   1      31.629   9.409  11.4470  0.00  0.00     0.000 C
ATOM     18   O  SGN B   1      31.104   9.099  10.1400  0.00  0.00     0.000 O
ATOM     19   S  SGN B   1      32.081   8.290   9.1660  0.00  0.00     0.000 S
ATOM     20   O  SGN B   1      31.427   8.316   7.8740  0.00  0.00     0.000 OA
ATOM     21   O  SGN B   1      33.316   9.038   9.2040  0.00  0.00     0.000 OA
ATOM     22   O  SGN B   1      32.177   6.967   9.7410  0.00  0.00     0.000 OA
ENDBRANCH 5 17
BRANCH 1 23
ATOM     23  O4  IDS B   2      28.681  10.983  14.0480  0.00  0.00     0.000 O
BRANCH 23 27
ATOM     24  C1  IDS B   2      27.247  14.555  15.6020  0.00  0.00     0.000 C
ATOM     25  C2  IDS B   2      26.680  14.152  14.2230  0.00  0.00     0.000 C
ATOM     26  C3  IDS B   2      27.036  12.707  13.8870  0.00  0.00     0.000 C
ATOM     27  C4  IDS B   2      28.529  12.415  13.9620  0.00  0.00     0.000 C
ATOM     28  C5  IDS B   2      29.160  13.196  15.1330  0.00  0.00     0.000 C
ATOM     29  O5  IDS B   2      28.173  13.572  16.0820  0.00  0.00     0.000 O
ATOM     30   O  IDS B   2      26.607  12.414  12.5630  0.00  0.00     0.000 O
ATOM     32  HD  IDS B   2      27.143  12.718  11.9550  0.00  0.00     0.000 HD
BRANCH 25 32
ATOM     32   O  IDS B   2      25.203  14.275  14.1650  0.00  0.00     0.000 O
ATOM     33   S  IDS B   2      24.459  15.436  13.2580  0.00  0.00     0.000 S
ATOM     34   O  IDS B   2      23.052  15.394  13.6220  0.00  0.00     0.000 OA
ATOM     35   O  IDS B   2      25.047  16.734  13.5560  0.00  0.00     0.000 OA
ATOM     36   O  IDS B   2      24.660  15.044  11.8820  0.00  0.00     0.000 OA
ENDBRANCH 25 32
BRANCH 28 37
ATOM     37   C  IDS B   2      30.333  12.538  15.8880  0.00  0.00     0.000 C
ATOM     38   O  IDS B   2      31.382  12.633  15.2950  0.00  0.00     0.000 OA
ATOM     39   O  IDS B   2      30.297  12.005  17.0240  0.00  0.00     0.000 OA
ENDBRANCH 28 37
BRANCH 24 40
ATOM     40  O4  SUS B   3      27.096  15.820  16.0480  0.00  0.00     0.000 O
BRANCH 40 44
ATOM     41  C1  SUS B   3      26.061  16.806  19.9860  0.00  0.00     0.000 C
ATOM     42  C2  SUS B   3      27.358  17.421  19.4220  0.00  0.00     0.000 C
ATOM     43  C3  SUS B   3      27.323  17.359  17.8970  0.00  0.00     0.000 C
ATOM     44  C4  SUS B   3      27.084  15.920  17.4680  0.00  0.00     0.000 C
ATOM     45  C5  SUS B   3      25.743  15.465  18.0050  0.00  0.00     0.000 C
ATOM     46  O5  SUS B   3      25.797  15.506  19.4460  0.00  0.00     0.000 O
BRANCH 42 49
ATOM     47   N  SUS B   3      28.702  17.645  19.9830  0.00  0.00     0.000 N
ATOM     49  HD  SUS B   3      29.094  16.958  20.3350  0.00  0.00     0.000 HD
ATOM     49   S  SUS B   3      28.734  18.838  21.0510  0.00  0.00     0.000 S
ATOM     50   O  SUS B   3      27.824  18.572  22.0950  0.00  0.00     0.000 OA
ATOM     51   O  SUS B   3      30.192  18.614  21.5280  0.00  0.00     0.000 OA
ATOM     52   O  SUS B   3      28.614  20.071  20.3790  0.00  0.00     0.000 OA
ENDBRANCH 42 49
BRANCH 43 53
ATOM     53   O  SUS B   3      28.630  17.823  17.3930  0.00  0.00     0.000 O
ATOM     54   S  SUS B   3      28.628  19.128  16.3930  0.00  0.00     0.000 S
ATOM     55   O  SUS B   3      28.297  20.295  17.1990  0.00  0.00     0.000 OA
ATOM     56   O  SUS B   3      29.973  19.155  15.8470  0.00  0.00     0.000 OA
ATOM     57   O  SUS B   3      27.599  18.873  15.3800  0.00  0.00     0.000 OA
ENDBRANCH 43 53
BRANCH 45 58
ATOM     58   C  SUS B   3      25.387  14.071  17.5350  0.00  0.00     0.000 C
ATOM     59   S  SUS B   3      23.461  12.377  17.4710  0.00  0.00     0.000 S
ATOM     60   O  SUS B   3      23.977  13.855  17.7080  0.00  0.00     0.000 O
ATOM     61   O  SUS B   3      23.820  11.652  18.6760  0.00  0.00     0.000 OA
ATOM     62   O  SUS B   3      22.045  12.602  17.3590  0.00  0.00     0.000 OA
ATOM     63   O  SUS B   3      24.102  11.937  16.2830  0.00  0.00     0.000 OA
ENDBRANCH 45 58
BRANCH 41 64
ATOM     64  O4  IDS B   4      24.985  17.658  19.9520  0.00  0.00     0.000 O
BRANCH 64 68
ATOM     65  C1  IDS B   4      22.384  19.767  21.3870  0.00  0.00     0.000 C
ATOM     66  C2  IDS B   4      23.775  19.711  22.0310  0.00  0.00     0.000 C
ATOM     67  C3  IDS B   4      24.330  18.307  22.2050  0.00  0.00     0.000 C
ATOM     68  C4  IDS B   4      24.042  17.408  21.0180  0.00  0.00     0.000 C
ATOM     69  C5  IDS B   4      22.580  17.618  20.6020  0.00  0.00     0.000 C
ATOM     70  O5  IDS B   4      22.393  18.980  20.2100  0.00  0.00     0.000 O
ATOM     71   O  IDS B   4      23.740  17.765  23.3690  0.00  0.00     0.000 O
ATOM     73  HD  IDS B   4      23.975  18.398  22.8270  0.00  0.00     0.000 HD
BRANCH 66 73
ATOM     73   O  IDS B   4      24.730  20.403  21.1540  0.00  0.00     0.000 O
ATOM     74   S  IDS B   4      25.399  21.773  21.6940  0.00  0.00     0.000 S
ATOM     75   O  IDS B   4      24.304  22.663  22.0190  0.00  0.00     0.000 OA
ATOM     76   O  IDS B   4      26.177  22.192  20.5550  0.00  0.00     0.000 OA
ATOM     77   O  IDS B   4      26.185  21.392  22.8420  0.00  0.00     0.000 OA
ENDBRANCH 66 73
BRANCH 69 78
ATOM     78   C  IDS B   4      22.072  16.627  19.5640  0.00  0.00     0.000 C
ATOM     79   O  IDS B   4      21.305  17.029  18.6900  0.00  0.00     0.000 OA
ATOM     80   O  IDS B   4      22.532  15.471  19.5680  0.00  0.00     0.000 OA
ENDBRANCH 69 78
BRANCH 65 81
ATOM     81  O4  SGN B   5      21.440  19.462  22.3210  0.00  0.00     0.000 O
BRANCH 81 85
ATOM     82  C1  SGN B   5      17.450  20.151  23.4350  0.00  0.00     0.000 C
ATOM     83  C2  SGN B   5      17.698  19.644  22.0060  0.00  0.00     0.000 C
ATOM     84  C3  SGN B   5      19.096  19.016  21.9200  0.00  0.00     0.000 C
ATOM     85  C4  SGN B   5      20.129  20.028  22.3830  0.00  0.00     0.000 C
ATOM     86  C5  SGN B   5      19.792  20.436  23.8150  0.00  0.00     0.000 C
ATOM     87  O5  SGN B   5      18.482  21.035  23.8290  0.00  0.00     0.000 O
ATOM     88   O  SGN B   5      19.353  18.600  20.5970  0.00  0.00     0.000 O
ATOM     90  HD  SGN B   5      19.123  18.081  21.2500  0.00  0.00     0.000 HD
BRANCH 83 92
ATOM     90   N  SGN B   5      16.265  19.986  21.9180  0.00  0.00     0.000 N
ATOM     92  HD  SGN B   5      16.141  20.837  22.0270  0.00  0.00     0.000 HD
ATOM     92   S  SGN B   5      15.404  19.322  20.7460  0.00  0.00     0.000 S
ATOM     93   O  SGN B   5      14.087  19.852  20.9300  0.00  0.00     0.000 OA
ATOM     94   O  SGN B   5      16.118  19.589  19.5450  0.00  0.00     0.000 OA
ATOM     95   O  SGN B   5      15.491  17.833  21.0030  0.00  0.00     0.000 OA
ENDBRANCH 83 92
BRANCH 86 96
ATOM     96   C  SGN B   5      20.754  21.441  24.4160  0.00  0.00     0.000 C
ATOM     97   O  SGN B   5      20.071  22.653  24.7480  0.00  0.00     0.000 O
ATOM     98   S  SGN B   5      20.296  23.205  26.2360  0.00  0.00     0.000 S
ATOM     99   O  SGN B   5      19.665  24.502  26.1930  0.00  0.00     0.000 OA
ATOM    100   O  SGN B   5      19.691  22.282  27.1290  0.00  0.00     0.000 OA
ATOM    101   O  SGN B   5      21.714  23.270  26.3800  0.00  0.00     0.000 OA
ENDBRANCH 86 96
BRANCH 82 102
ATOM    102  O4  IDS B   6      17.324  19.136  24.3370  0.00  0.00     0.000 O
BRANCH 102 106
ATOM    103  C1  IDS B   6      15.586  17.774  27.2320  0.00  0.00     0.000 C
ATOM    104  C2  IDS B   6      14.882  18.757  26.2830  0.00  0.00     0.000 C
ATOM    105  C3  IDS B   6      15.686  19.992  25.9230  0.00  0.00     0.000 C
ATOM    106  C4  IDS B   6      17.151  19.683  25.6690  0.00  0.00     0.000 C
ATOM    107  C5  IDS B   6      17.666  18.705  26.7300  0.00  0.00     0.000 C
ATOM    108  O5  IDS B   6      16.894  17.504  26.7660  0.00  0.00     0.000 O
ATOM    109   O  IDS B   6      15.545  20.932  26.9750  0.00  0.00     0.000 O
ATOM    111  HD  IDS B   6      15.330  20.449  27.6600  0.00  0.00     0.000 HD
BRANCH 104 111
ATOM    111   O  IDS B   6      14.615  18.081  25.0040  0.00  0.00     0.000 O
ATOM    112   S  IDS B   6      13.197  18.330  24.3030  0.00  0.00     0.000 S
ATOM    113   O  IDS B   6      12.220  17.892  25.2870  0.00  0.00     0.000 OA
ATOM    114   O  IDS B   6      13.103  19.747  23.9350  0.00  0.00     0.000 OA
ATOM    115   O  IDS B   6      13.335  17.435  23.1740  0.00  0.00     0.000 OA
ENDBRANCH 104 111
BRANCH 107 116
ATOM    116   C  IDS B   6      19.125  18.374  26.4440  0.00  0.00     0.000 C
ATOM    117   O  IDS B   6      19.951  18.957  27.1000  0.00  0.00     0.000 OA
ATOM    118   O  IDS B   6      19.436  17.564  25.5850  0.00  0.00     0.000 OA
ENDBRANCH 107 116
BRANCH 103 119
ATOM    119  O4  SGN B   7      15.370  18.306  28.4620  0.00  0.00     0.000 O
BRANCH 119 123
ATOM    120  C1  SGN B   7      14.541  16.812  32.2800  0.00  0.00     0.000 C
ATOM    121  C2  SGN B   7      16.020  16.950  31.8730  0.00  0.00     0.000 C
ATOM    122  C3  SGN B   7      16.159  17.864  30.6490  0.00  0.00     0.000 C
ATOM    123  C4  SGN B   7      15.258  17.366  29.5320  0.00  0.00     0.000 C
ATOM    124  C5  SGN B   7      13.810  17.257  30.0380  0.00  0.00     0.000 C
ATOM    125  O5  SGN B   7      13.726  16.387  31.1890  0.00  0.00     0.000 O
ATOM    126   O  SGN B   7      17.532  17.890  30.2400  0.00  0.00     0.000 O
ATOM    128  HD  SGN B   7      16.945  17.659  30.8350  0.00  0.00     0.000 HD
BRANCH 121 130
ATOM    128   N  SGN B   7      16.285  16.307  33.1630  0.00  0.00     0.000 N
ATOM    130  HD  SGN B   7      16.824  15.747  32.7820  0.00  0.00     0.000 HD
ATOM    130   S  SGN B   7      17.682  16.490  33.9440  0.00  0.00     0.000 S
ATOM    131   O  SGN B   7      17.906  17.895  33.9820  0.00  0.00     0.000 OA
ATOM    132   O  SGN B   7      17.623  15.740  35.1460  0.00  0.00     0.000 OA
ATOM    133   O  SGN B   7      18.635  15.668  33.0110  0.00  0.00     0.000 OA
ENDBRANCH 121 130
BRANCH 124 134
ATOM    134   C  SGN B   7      12.861  16.663  29.0390  0.00  0.00     0.000 C
ATOM    135   O  SGN B   7      13.111  15.250  28.9540  0.00  0.00     0.000 O
ATOM    136   S  SGN B   7      12.115  14.415  28.0710  0.00  0.00     0.000 S
ATOM    137   O  SGN B   7      12.623  13.064  28.0540  0.00  0.00     0.000 OA
ATOM    138   O  SGN B   7      12.143  15.045  26.7710  0.00  0.00     0.000 OA
ATOM    139   O  SGN B   7      10.859  14.566  28.7880  0.00  0.00     0.000 OA
ENDBRANCH 124 134
BRANCH 120 140
ATOM    140  O4  IDS B   8      13.736  17.752  32.7880  0.00  0.00     0.000 O
BRANCH 140 144
ATOM    141  C1  IDS B   8      12.297  21.028  33.1870  0.00  0.00     0.000 C
ATOM    142  C2  IDS B   8      13.811  20.852  32.8760  0.00  0.00     0.000 C
ATOM    143  C3  IDS B   8      14.498  19.818  33.7870  0.00  0.00     0.000 C
ATOM    144  C4  IDS B   8      13.651  18.560  33.9680  0.00  0.00     0.000 C
ATOM    145  C5  IDS B   8      12.188  18.942  34.2410  0.00  0.00     0.000 C
ATOM    146  O5  IDS B   8      11.654  19.759  33.2030  0.00  0.00     0.000 O
BRANCH 142 147
ATOM    147   O  IDS B   8      13.978  20.383  31.4750  0.00  0.00     0.000 O
ATOM    148   S  IDS B   8      14.315  21.425  30.2790  0.00  0.00     0.000 S
ATOM    149   O  IDS B   8      14.020  22.756  30.7610  0.00  0.00     0.000 OA
ATOM    150   O  IDS B   8      15.723  21.234  29.9840  0.00  0.00     0.000 OA
ATOM    151   O  IDS B   8      13.447  21.042  29.1820  0.00  0.00     0.000 OA
ENDBRANCH 142 147
BRANCH 145 152
ATOM    152   C  IDS B   8      11.277  17.734  34.3310  0.00  0.00     0.000 C
ATOM    153   O  IDS B   8      10.851  17.220  33.3030  0.00  0.00     0.000 OA
ATOM    154   O  IDS B   8      10.994  17.274  35.4230  0.00  0.00     0.000 OA
ENDBRANCH 145 152
ENDBRANCH 140 144
ENDBRANCH 120 140
ENDBRANCH 119 123
ENDBRANCH 103 119
ENDBRANCH 102 106
ENDBRANCH 82 102
ENDBRANCH 81 85
ENDBRANCH 65 81
ENDBRANCH 64 68
ENDBRANCH 41 64
ENDBRANCH 40 44
ENDBRANCH 24 40
ENDBRANCH 23 27
ENDBRANCH 1 23
TORSDOF 31
ENDMDL
MODEL 2
REMARK VINA RESULT:      -9.1      1.198      2.248
ROOT
ATOM      1  C1  SGN B   1      28.492  10.037  13.2790  0.00  0.00     0.000 C
ATOM      2  C2  SGN B   1      27.953   8.602  13.4000  0.00  0.00     0.000 C
ATOM      3  C3  SGN B   1      29.086   7.622  13.7230  0.00  0.00     0.000 C
ATOM      4  C4  SGN B   1      30.190   7.731  12.6760  0.00  0.00     0.000 C
ATOM      5  C5  SGN B   1      30.576   9.199  12.5070  0.00  0.00     0.000 C
ATOM      6  O5  SGN B   1      29.402   9.971  12.1890  0.00  0.00     0.000 O
ATOM      7   O  SGN B   1      28.592   6.290  13.7900  0.00  0.00     0.000 O
ATOM      9  HD  SGN B   1      28.408   6.505  12.9720  0.00  0.00     0.000 HD
ATOM      9   O  SGN B   1      31.312   6.976  13.0950  0.00  0.00     0.000 O
ATOM     11  HD  SGN B   1      31.128   7.191  12.2770  0.00  0.00     0.000 HD
ENDROOT
BRANCH 2 13
ATOM     11   N  SGN B   1      26.531   8.885  13.1280  0.00  0.00     0.000 N
ATOM     13  HD  SGN B   1      26.933   9.256  13.7990  0.00  0.00     0.000 HD
ATOM     13   S  SGN B   1      25.497   9.285  14.2940  0.00  0.00     0.000 S
ATOM     14   O  SGN B   1      26.167   9.365  15.5320  0.00  0.00     0.000 OA
ATOM     15   O  SGN B   1      24.720  10.392  13.8460  0.00  0.00     0.000 OA
ATOM     16   O  SGN B   1      24.582   8.023  14.2240  0.00  0.00     0.000 OA
ENDBRANCH 2 13
BRANCH 5 17
ATOM     17   C  SGN B   1      31.587   9.446  11.4150  0.00  0.00     0.000 C
ATOM     18   O  SGN B   1      31.049   9.091  10.1260  0.00  0.00     0.000 O
ATOM     19   S  SGN B   1      32.014   8.242   9.1730  0.00  0.00     0.000 S
ATOM     20   O  SGN B   1      31.349   8.223   7.8880  0.00  0.00     0.000 OA
ATOM     21   O  SGN B   1      33.252   8.986   9.1730  0.00  0.00     0.000 OA
ATOM     22   O  SGN B   1      32.110   6.940   9.7970  0.00  0.00     0.000 OA
ENDBRANCH 5 17
BRANCH 1 23
ATOM     23  O4  IDS B   2      28.730  11.141  14.0430  0.00  0.00     0.000 O
BRANCH 23 27
ATOM     24  C1  IDS B   2      27.319  14.730  15.5810  0.00  0.00     0.000 C
ATOM     25  C2  IDS B   2      26.759  14.330  14.1980  0.00  0.00     0.000 C
ATOM     26  C3  IDS B   2      27.103  12.880  13.8670  0.00  0.00     0.000 C
ATOM     27  C4  IDS B   2      28.592  12.575  13.9530  0.00  0.00     0.000 C
ATOM     28  C5  IDS B   2      29.222  13.350  15.1280  0.00  0.00     0.000 C
ATOM     29  O5  IDS B   2      28.232  13.738  16.0690  0.00  0.00     0.000 O
ATOM     30   O  IDS B   2      26.681  12.590  12.5400  0.00  0.00     0.000 O
ATOM     32  HD  IDS B   2      27.224  12.888  11.9360  0.00  0.00     0.000 HD
BRANCH 25 32
ATOM     32   O  IDS B   2      25.283  14.467  14.1290  0.00  0.00     0.000 O
ATOM     33   S  IDS B   2      24.557  15.619  13.1970  0.00  0.00     0.000 S
ATOM     34   O  IDS B   2      23.147  15.598  13.5520  0.00  0.00     0.000 OA
ATOM     35   O  IDS B   2      25.157  16.916  13.4740  0.00  0.00     0.000 OA
ATOM     36   O  IDS B   2      24.761  15.199  11.8300  0.00  0.00     0.000 OA
ENDBRANCH 25 32
BRANCH 28 37
ATOM     37   C  IDS B   2      30.384  12.682  15.8920  0.00  0.00     0.000 C
ATOM     38   O  IDS B   2      30.008  12.040  16.8450  0.00  0.00     0.000 OA
ATOM     39   O  IDS B   2      31.600  12.699  15.5830  0.00  0.00     0.000 OA
ENDBRANCH 28 37
BRANCH 24 40
ATOM     40  O4  SUS B   3      27.177  15.996  16.0240  0.00  0.00     0.000 O
BRANCH 40 44
ATOM     41  C1  SUS B   3      26.221  17.012  19.9740  0.00  0.00     0.000 C
ATOM     42  C2  SUS B   3      27.516  17.608  19.3860  0.00  0.00     0.000 C
ATOM     43  C3  SUS B   3      27.455  17.540  17.8620  0.00  0.00     0.000 C
ATOM     44  C4  SUS B   3      27.190  16.103  17.4430  0.00  0.00     0.000 C
ATOM     45  C5  SUS B   3      25.852  15.667  18.0050  0.00  0.00     0.000 C
ATOM     46  O5  SUS B   3      25.931  15.714  19.4440  0.00  0.00     0.000 O
BRANCH 42 49
ATOM     47   N  SUS B   3      27.852  18.978  19.8080  0.00  0.00     0.000 N
ATOM     49  HD  SUS B   3      28.113  19.522  19.1850  0.00  0.00     0.000 HD
ATOM     49   S  SUS B   3      28.937  19.014  20.9860  0.00  0.00     0.000 S
ATOM     50   O  SUS B   3      30.108  18.343  20.5810  0.00  0.00     0.000 OA
ATOM     51   O  SUS B   3      29.157  20.549  20.9810  0.00  0.00     0.000 OA
ATOM     52   O  SUS B   3      28.332  18.602  22.1900  0.00  0.00     0.000 OA
ENDBRANCH 42 49
BRANCH 43 53
ATOM     53   O  SUS B   3      28.759  17.985  17.3340  0.00  0.00     0.000 O
ATOM     54   S  SUS B   3      28.772  19.351  16.4200  0.00  0.00     0.000 S
ATOM     55   O  SUS B   3      28.522  20.475  17.3120  0.00  0.00     0.000 OA
ATOM     56   O  SUS B   3      30.095  19.361  15.8220  0.00  0.00     0.000 OA
ATOM     57   O  SUS B   3      27.695  19.203  15.4380  0.00  0.00     0.000 OA
ENDBRANCH 43 53
BRANCH 45 58
ATOM     58   C  SUS B   3      25.471  14.276  17.5470  0.00  0.00     0.000 C
ATOM     59   S  SUS B   3      23.544  12.582  17.5790  0.00  0.00     0.000 S
ATOM     60   O  SUS B   3      24.072  14.059  17.7960  0.00  0.00     0.000 O
ATOM     61   O  SUS B   3      23.969  11.850  18.7580  0.00  0.00     0.000 OA
ATOM     62   O  SUS B   3      22.124  12.808  17.5470  0.00  0.00     0.000 OA
ATOM     63   O  SUS B   3      24.119  12.149  16.3550  0.00  0.00     0.000 OA
ENDBRANCH 45 58
BRANCH 41 64
ATOM     64  O4  IDS B   4      25.155  17.878  19.9540  0.00  0.00     0.000 O
BRANCH 64 68
ATOM     65  C1  IDS B   4      22.647  20.055  21.4510  0.00  0.00     0.000 C
ATOM     66  C2  IDS B   4      24.053  19.965  22.0580  0.00  0.00     0.000 C
ATOM     67  C3  IDS B   4      24.576  18.548  22.2220  0.00  0.00     0.000 C
ATOM     68  C4  IDS B   4      24.235  17.654  21.0450  0.00  0.00     0.000 C
ATOM     69  C5  IDS B   4      22.768  17.900  20.6670  0.00  0.00     0.000 C
ATOM     70  O5  IDS B   4      22.606  19.266  20.2760  0.00  0.00     0.000 O
ATOM     71   O  IDS B   4      24.003  18.023  23.4020  0.00  0.00     0.000 O
ATOM     73  HD  IDS B   4      24.240  18.649  22.8520  0.00  0.00     0.000 HD
BRANCH 66 73
ATOM     73   O  IDS B   4      25.002  20.631  21.1560  0.00  0.00     0.000 O
ATOM     74   S  IDS B   4      25.749  21.963  21.6890  0.00  0.00     0.000 S
ATOM     75   O  IDS B   4      24.707  22.892  22.0700  0.00  0.00     0.000 OA
ATOM     76   O  IDS B   4      26.499  22.367  20.5270  0.00  0.00     0.000 OA
ATOM     77   O  IDS B   4      26.562  21.529  22.8000  0.00  0.00     0.000 OA
ENDBRANCH 66 73
BRANCH 69 78
ATOM     78   C  IDS B   4      22.208  16.921  19.6440  0.00  0.00     0.000 C
ATOM     79   O  IDS B   4      22.386  15.717  19.8200  0.00  0.00     0.000 OA
ATOM     80   O  IDS B   4      21.499  17.364  18.7210  0.00  0.00     0.000 OA
ENDBRANCH 69 78
BRANCH 65 81
ATOM     81  O4  SGN B   5      21.720  19.776  22.4100  0.00  0.00     0.000 O
BRANCH 81 85
ATOM     82  C1  SGN B   5      17.711  20.436  23.4730  0.00  0.00     0.000 C
ATOM     83  C2  SGN B   5      17.996  20.092  22.0030  0.00  0.00     0.000 C
ATOM     84  C3  SGN B   5      19.382  19.441  21.8880  0.00  0.00     0.000 C
ATOM     85  C4  SGN B   5      20.421  20.366  22.4960  0.00  0.00     0.000 C
ATOM     86  C5  SGN B   5      20.046  20.615  23.9550  0.00  0.00     0.000 C
ATOM     87  O5  SGN B   5      18.750  21.242  23.9980  0.00  0.00     0.000 O
ATOM     88   O  SGN B   5      19.674  19.173  20.5340  0.00  0.00     0.000 O
ATOM     90  HD  SGN B   5      19.410  18.589  21.1150  0.00  0.00     0.000 HD
BRANCH 83 92
ATOM     90   N  SGN B   5      16.555  20.405  21.9510  0.00  0.00     0.000 N
ATOM     92  HD  SGN B   5      16.401  21.209  22.2320  0.00  0.00     0.000 HD
ATOM     92   S  SGN B   5      15.740  19.977  20.6440  0.00  0.00     0.000 S
ATOM     93   O  SGN B   5      14.402  20.419  20.9000  0.00  0.00     0.000 OA
ATOM     94   O  SGN B   5      16.468  20.509  19.5440  0.00  0.00     0.000 OA
ATOM     95   O  SGN B   5      15.869  18.471  20.5860  0.00  0.00     0.000 OA
ENDBRANCH 83 92
BRANCH 86 96
ATOM     96   C  SGN B   5      21.009  21.518  24.6980  0.00  0.00     0.000 C
ATOM     97   O  SGN B   5      21.313  20.976  25.9860  0.00  0.00     0.000 O
ATOM     98   S  SGN B   5      22.869  20.860  26.3530  0.00  0.00     0.000 S
ATOM     99   O  SGN B   5      22.840  20.487  27.7470  0.00  0.00     0.000 OA
ATOM    100   O  SGN B   5      23.438  19.886  25.4910  0.00  0.00     0.000 OA
ATOM    101   O  SGN B   5      23.386  22.171  26.1280  0.00  0.00     0.000 OA
ENDBRANCH 86 96
BRANCH 82 102
ATOM    102  O4  IDS B   6      17.532  19.329  24.2460  0.00  0.00     0.000 O
BRANCH 102 106
ATOM    103  C1  IDS B   6      15.600  17.680  26.8550  0.00  0.00     0.000 C
ATOM    104  C2  IDS B   6      14.968  18.777  25.9830  0.00  0.00     0.000 C
ATOM    105  C3  IDS B   6      15.807  20.029  25.8160  0.00  0.00     0.000 C
ATOM    106  C4  IDS B   6      17.282  19.724  25.6190  0.00  0.00     0.000 C
ATOM    107  C5  IDS B   6      17.717  18.623  26.5910  0.00  0.00     0.000 C
ATOM    108  O5  IDS B   6      16.932  17.440  26.4420  0.00  0.00     0.000 O
ATOM    109   O  IDS B   6      15.610  20.847  26.9580  0.00  0.00     0.000 O
ATOM    111  HD  IDS B   6      15.347  20.293  27.5690  0.00  0.00     0.000 HD
BRANCH 104 111
ATOM    111   O  IDS B   6      14.775  18.254  24.6210  0.00  0.00     0.000 O
ATOM    112   S  IDS B   6      13.311  18.344  23.9810  0.00  0.00     0.000 S
ATOM    113   O  IDS B   6      12.462  17.603  24.9010  0.00  0.00     0.000 OA
ATOM    114   O  IDS B   6      12.957  19.760  23.8280  0.00  0.00     0.000 OA
ATOM    115   O  IDS B   6      13.560  17.660  22.7310  0.00  0.00     0.000 OA
ENDBRANCH 104 111
BRANCH 107 116
ATOM    116   C  IDS B   6      19.188  18.300  26.3600  0.00  0.00     0.000 C
ATOM    117   O  IDS B   6      19.447  17.604  25.4120  0.00  0.00     0.000 OA
ATOM    118   O  IDS B   6      20.056  18.721  27.1090  0.00  0.00     0.000 OA
ENDBRANCH 107 116
BRANCH 103 119
ATOM    119  O4  SGN B   7      15.312  18.073  28.1230  0.00  0.00     0.000 O
BRANCH 119 123
ATOM    120  C1  SGN B   7      15.620  16.359  31.9250  0.00  0.00     0.000 C
ATOM    121  C2  SGN B   7      16.811  17.196  31.4210  0.00  0.00     0.000 C
ATOM    122  C3  SGN B   7      16.391  18.065  30.2290  0.00  0.00     0.000 C
ATOM    123  C4  SGN B   7      15.755  17.194  29.1580  0.00  0.00     0.000 C
ATOM    124  C5  SGN B   7      14.586  16.397  29.7590  0.00  0.00     0.000 C
ATOM    125  O5  SGN B   7      15.026  15.594  30.8770  0.00  0.00     0.000 O
ATOM    126   O  SGN B   7      17.542  18.753  29.7260  0.00  0.00     0.000 O
ATOM    128  HD  SGN B   7      17.191  18.266  30.3500  0.00  0.00     0.000 HD
BRANCH 121 130
ATOM    128   N  SGN B   7      17.938  16.701  32.2160  0.00  0.00     0.000 N
ATOM    130  HD  SGN B   7      18.481  17.216  31.7790  0.00  0.00     0.000 HD
ATOM    130   S  SGN B   7      18.649  17.596  33.3500  0.00  0.00     0.000 S
ATOM    131   O  SGN B   7      17.586  18.081  34.1620  0.00  0.00     0.000 OA
ATOM    132   O  SGN B   7      19.701  16.836  33.9230  0.00  0.00     0.000 OA
ATOM    133   O  SGN B   7      19.372  18.660  32.4560  0.00  0.00     0.000 OA
ENDBRANCH 121 130
BRANCH 124 134
ATOM    134   C  SGN B   7      13.964  15.419  28.8060  0.00  0.00     0.000 C
ATOM    135   O  SGN B   7      12.589  15.226  29.1810  0.00  0.00     0.000 O
ATOM    136   S  SGN B   7      11.716  14.351  28.2120  0.00  0.00     0.000 S
ATOM    137   O  SGN B   7      10.424  14.214  28.8410  0.00  0.00     0.000 OA
ATOM    138   O  SGN B   7      12.423  13.096  28.0950  0.00  0.00     0.000 OA
ATOM    139   O  SGN B   7      11.701  15.150  26.9960  0.00  0.00     0.000 OA
ENDBRANCH 124 134
BRANCH 120 140
ATOM    140  O4  IDS B   8      14.505  16.790  32.5250  0.00  0.00     0.000 O
BRANCH 140 144
ATOM    141  C1  IDS B   8      13.379  16.408  35.9240  0.00  0.00     0.000 C
ATOM    142  C2  IDS B   8      14.124  15.254  35.1930  0.00  0.00     0.000 C
ATOM    143  C3  IDS B   8      13.556  14.962  33.7920  0.00  0.00     0.000 C
ATOM    144  C4  IDS B   8      13.273  16.243  33.0100  0.00  0.00     0.000 C
ATOM    145  C5  IDS B   8      12.558  17.264  33.9070  0.00  0.00     0.000 C
ATOM    146  O5  IDS B   8      13.312  17.553  35.0820  0.00  0.00     0.000 O
BRANCH 142 147
ATOM    147   O  IDS B   8      15.555  15.618  35.0210  0.00  0.00     0.000 O
ATOM    148   S  IDS B   8      16.726  14.509  35.1900  0.00  0.00     0.000 S
ATOM    149   O  IDS B   8      16.156  13.370  35.8730  0.00  0.00     0.000 OA
ATOM    150   O  IDS B   8      17.159  14.195  33.8410  0.00  0.00     0.000 OA
ATOM    151   O  IDS B   8      17.755  15.157  35.9810  0.00  0.00     0.000 OA
ENDBRANCH 142 147
BRANCH 145 152
ATOM    152   C  IDS B   8      12.338  18.595  33.2160  0.00  0.00     0.000 C
ATOM    153   O  IDS B   8      12.950  19.584  33.6010  0.00  0.00     0.000 OA
ATOM    154   O  IDS B   8      11.570  18.663  32.2720  0.00  0.00     0.000 OA
ENDBRANCH 145 152
ENDBRANCH 140 144
ENDBRANCH 120 140
ENDBRANCH 119 123
ENDBRANCH 103 119
ENDBRANCH 102 106
ENDBRANCH 82 102
ENDBRANCH 81 85
ENDBRANCH 65 81
ENDBRANCH 64 68
ENDBRANCH 41 64
ENDBRANCH 40 44
ENDBRANCH 24 40
ENDBRANCH 23 27
ENDBRANCH 1 23
TORSDOF 31
ENDMDL
MODEL 3
REMARK VINA RESULT:      -9.0      2.089      2.870
ROOT
ATOM      1  C1  SGN B   1      28.339  10.171  13.2720  0.00  0.00     0.000 C
ATOM      2  C2  SGN B   1      27.754   8.759  13.4340  0.00  0.00     0.000 C
ATOM      3  C3  SGN B   1      28.857   7.748  13.7650  0.00  0.00     0.000 C
ATOM      4  C4  SGN B   1      29.949   7.795  12.7010  0.00  0.00     0.000 C
ATOM      5  C5  SGN B   1      30.382   9.244  12.4930  0.00  0.00     0.000 C
ATOM      6  O5  SGN B   1      29.231  10.049  12.1730  0.00  0.00     0.000 O
ATOM      7   O  SGN B   1      28.319   6.436  13.8700  0.00  0.00     0.000 O
ATOM      9  HD  SGN B   1      28.131   6.638  13.0490  0.00  0.00     0.000 HD
ATOM      9   O  SGN B   1      31.051   7.012  13.1230  0.00  0.00     0.000 O
ATOM     11  HD  SGN B   1      30.863   7.214  12.3020  0.00  0.00     0.000 HD
ENDROOT
BRANCH 2 13
ATOM     11   N  SGN B   1      26.409   9.306  13.1720  0.00  0.00     0.000 N
ATOM     13  HD  SGN B   1      26.794   9.433  13.9370  0.00  0.00     0.000 HD
ATOM     13   S  SGN B   1      25.335   9.546  14.3450  0.00  0.00     0.000 S
ATOM     14   O  SGN B   1      25.898   9.212  15.5950  0.00  0.00     0.000 OA
ATOM     15   O  SGN B   1      24.749  10.832  14.1630  0.00  0.00     0.000 OA
ATOM     16   O  SGN B   1      24.277   8.491  13.8990  0.00  0.00     0.000 OA
ENDBRANCH 2 13
BRANCH 5 17
ATOM     17   C  SGN B   1      31.385   9.432  11.3820  0.00  0.00     0.000 C
ATOM     18   O  SGN B   1      31.544   8.218  10.6210  0.00  0.00     0.000 O
ATOM     19   S  SGN B   1      33.048   7.794  10.2830  0.00  0.00     0.000 S
ATOM     20   O  SGN B   1      32.928   6.706   9.3350  0.00  0.00     0.000 OA
ATOM     21   O  SGN B   1      33.634   8.988   9.7200  0.00  0.00     0.000 OA
ATOM     22   O  SGN B   1      33.623   7.398  11.5500  0.00  0.00     0.000 OA
ENDBRANCH 5 17
BRANCH 1 23
ATOM     23  O4  IDS B   2      28.625  11.284  14.0070  0.00  0.00     0.000 O
BRANCH 23 27
ATOM     24  C1  IDS B   2      27.028  14.790  15.5520  0.00  0.00     0.000 C
ATOM     25  C2  IDS B   2      26.528  14.392  14.1450  0.00  0.00     0.000 C
ATOM     26  C3  IDS B   2      26.939  12.962  13.8040  0.00  0.00     0.000 C
ATOM     27  C4  IDS B   2      28.435  12.712  13.9350  0.00  0.00     0.000 C
ATOM     28  C5  IDS B   2      28.996  13.492  15.1410  0.00  0.00     0.000 C
ATOM     29  O5  IDS B   2      27.962  13.826  16.0550  0.00  0.00     0.000 O
ATOM     30   O  IDS B   2      26.572  12.677  12.4590  0.00  0.00     0.000 O
ATOM     32  HD  IDS B   2      27.123  13.006  11.8780  0.00  0.00     0.000 HD
BRANCH 25 32
ATOM     32   O  IDS B   2      25.051  14.474  14.0300  0.00  0.00     0.000 O
ATOM     33   S  IDS B   2      24.307  15.710  13.2300  0.00  0.00     0.000 S
ATOM     34   O  IDS B   2      22.887  15.581  13.5160  0.00  0.00     0.000 OA
ATOM     35   O  IDS B   2      24.832  16.982  13.7070  0.00  0.00     0.000 OA
ATOM     36   O  IDS B   2      24.584  15.491  11.8290  0.00  0.00     0.000 OA
ENDBRANCH 25 32
BRANCH 28 37
ATOM     37   C  IDS B   2      30.157  12.856  15.9330  0.00  0.00     0.000 C
ATOM     38   O  IDS B   2      29.793  12.343  16.9650  0.00  0.00     0.000 OA
ATOM     39   O  IDS B   2      31.359  12.779  15.5800  0.00  0.00     0.000 OA
ENDBRANCH 28 37
BRANCH 24 40
ATOM     40  O4  SUS B   3      26.822  16.043  16.0090  0.00  0.00     0.000 O
BRANCH 40 44
ATOM     41  C1  SUS B   3      25.798  17.111  19.9280  0.00  0.00     0.000 C
ATOM     42  C2  SUS B   3      27.187  17.546  19.4180  0.00  0.00     0.000 C
ATOM     43  C3  SUS B   3      27.197  17.511  17.8920  0.00  0.00     0.000 C
ATOM     44  C4  SUS B   3      26.775  16.125  17.4290  0.00  0.00     0.000 C
ATOM     45  C5  SUS B   3      25.365  15.854  17.9140  0.00  0.00     0.000 C
ATOM     46  O5  SUS B   3      25.375  15.868  19.3560  0.00  0.00     0.000 O
BRANCH 42 49
ATOM     47   N  SUS B   3      28.579  17.875  19.7700  0.00  0.00     0.000 N
ATOM     49  HD  SUS B   3      29.130  17.210  19.8300  0.00  0.00     0.000 HD
ATOM     49   S  SUS B   3      28.688  18.736  21.1170  0.00  0.00     0.000 S
ATOM     50   O  SUS B   3      28.083  18.039  22.1820  0.00  0.00     0.000 OA
ATOM     51   O  SUS B   3      30.233  18.684  21.2380  0.00  0.00     0.000 OA
ATOM     52   O  SUS B   3      28.253  20.052  20.8670  0.00  0.00     0.000 OA
ENDBRANCH 42 49
BRANCH 43 53
ATOM     53   O  SUS B   3      28.572  17.794  17.4390  0.00  0.00     0.000 O
ATOM     54   S  SUS B   3      28.816  19.192  16.6100  0.00  0.00     0.000 S
ATOM     55   O  SUS B   3      28.686  20.290  17.5580  0.00  0.00     0.000 OA
ATOM     56   O  SUS B   3      30.152  19.048  16.0610  0.00  0.00     0.000 OA
ATOM     57   O  SUS B   3      27.773  19.252  15.5820  0.00  0.00     0.000 OA
ENDBRANCH 43 53
BRANCH 45 58
ATOM     58   C  SUS B   3      24.836  14.530  17.4070  0.00  0.00     0.000 C
ATOM     59   S  SUS B   3      24.381  12.111  18.1330  0.00  0.00     0.000 S
ATOM     60   O  SUS B   3      24.714  13.613  18.5080  0.00  0.00     0.000 O
ATOM     61   O  SUS B   3      25.635  11.547  17.6740  0.00  0.00     0.000 OA
ATOM     62   O  SUS B   3      23.977  11.599  19.4150  0.00  0.00     0.000 OA
ATOM     63   O  SUS B   3      23.353  12.183  17.1560  0.00  0.00     0.000 OA
ENDBRANCH 45 58
BRANCH 41 64
ATOM     64  O4  IDS B   4      24.852  18.105  19.8740  0.00  0.00     0.000 O
BRANCH 64 68
ATOM     65  C1  IDS B   4      22.424  19.643  22.1140  0.00  0.00     0.000 C
ATOM     66  C2  IDS B   4      23.426  18.612  22.6500  0.00  0.00     0.000 C
ATOM     67  C3  IDS B   4      23.558  17.362  21.7970  0.00  0.00     0.000 C
ATOM     68  C4  IDS B   4      23.549  17.659  20.3100  0.00  0.00     0.000 C
ATOM     69  C5  IDS B   4      22.432  18.673  20.0320  0.00  0.00     0.000 C
ATOM     70  O5  IDS B   4      22.704  19.881  20.7460  0.00  0.00     0.000 O
ATOM     71   O  IDS B   4      22.473  16.517  22.1220  0.00  0.00     0.000 O
ATOM     73  HD  IDS B   4      23.025  17.173  22.2460  0.00  0.00     0.000 HD
BRANCH 66 73
ATOM     73   O  IDS B   4      24.765  19.218  22.6670  0.00  0.00     0.000 O
ATOM     74   S  IDS B   4      25.354  19.716  24.0880  0.00  0.00     0.000 S
ATOM     75   O  IDS B   4      24.391  20.652  24.6260  0.00  0.00     0.000 OA
ATOM     76   O  IDS B   4      26.603  20.319  23.6960  0.00  0.00     0.000 OA
ATOM     77   O  IDS B   4      25.497  18.521  24.8860  0.00  0.00     0.000 OA
ENDBRANCH 66 73
BRANCH 69 78
ATOM     78   C  IDS B   4      22.149  18.909  18.5550  0.00  0.00     0.000 C
ATOM     79   O  IDS B   4      22.732  18.215  17.7230  0.00  0.00     0.000 OA
ATOM     80   O  IDS B   4      21.260  19.722  18.2400  0.00  0.00     0.000 OA
ENDBRANCH 69 78
BRANCH 65 81
ATOM     81  O4  SGN B   5      21.158  19.246  22.4200  0.00  0.00     0.000 O
BRANCH 81 85
ATOM     82  C1  SGN B   5      17.419  20.656  23.7130  0.00  0.00     0.000 C
ATOM     83  C2  SGN B   5      17.703  20.713  22.2040  0.00  0.00     0.000 C
ATOM     84  C3  SGN B   5      18.861  19.764  21.8640  0.00  0.00     0.000 C
ATOM     85  C4  SGN B   5      20.068  20.123  22.7120  0.00  0.00     0.000 C
ATOM     86  C5  SGN B   5      19.672  20.009  24.1820  0.00  0.00     0.000 C
ATOM     87  O5  SGN B   5      18.598  20.933  24.4450  0.00  0.00     0.000 O
ATOM     88   O  SGN B   5      19.165  19.853  20.4890  0.00  0.00     0.000 O
ATOM     90  HD  SGN B   5      18.709  19.219  20.8630  0.00  0.00     0.000 HD
BRANCH 83 92
ATOM     90   N  SGN B   5      16.365  21.330  22.2880  0.00  0.00     0.000 N
ATOM     92  HD  SGN B   5      16.351  21.962  22.8800  0.00  0.00     0.000 HD
ATOM     92   S  SGN B   5      15.605  21.665  20.9220  0.00  0.00     0.000 S
ATOM     93   O  SGN B   5      14.366  22.248  21.3390  0.00  0.00     0.000 OA
ATOM     94   O  SGN B   5      16.524  22.424  20.1450  0.00  0.00     0.000 OA
ATOM     95   O  SGN B   5      15.434  20.325  20.2390  0.00  0.00     0.000 OA
ENDBRANCH 83 92
BRANCH 86 96
ATOM     96   C  SGN B   5      20.790  20.329  25.1530  0.00  0.00     0.000 C
ATOM     97   O  SGN B   5      20.403  20.003  26.4900  0.00  0.00     0.000 O
ATOM     98   S  SGN B   5      21.431  19.095  27.3210  0.00  0.00     0.000 S
ATOM     99   O  SGN B   5      20.871  19.117  28.6510  0.00  0.00     0.000 OA
ATOM    100   O  SGN B   5      21.458  17.815  26.7110  0.00  0.00     0.000 OA
ATOM    101   O  SGN B   5      22.675  19.786  27.2210  0.00  0.00     0.000 OA
ENDBRANCH 86 96
BRANCH 82 102
ATOM    102  O4  IDS B   6      16.888  19.463  24.1030  0.00  0.00     0.000 O
BRANCH 102 106
ATOM    103  C1  IDS B   6      14.109  17.457  25.3330  0.00  0.00     0.000 C
ATOM    104  C2  IDS B   6      13.861  18.660  24.4100  0.00  0.00     0.000 C
ATOM    105  C3  IDS B   6      14.599  19.928  24.7940  0.00  0.00     0.000 C
ATOM    106  C4  IDS B   6      16.023  19.662  25.2500  0.00  0.00     0.000 C
ATOM    107  C5  IDS B   6      16.052  18.440  26.1720  0.00  0.00     0.000 C
ATOM    108  O5  IDS B   6      15.498  17.284  25.5420  0.00  0.00     0.000 O
ATOM    109   O  IDS B   6      13.858  20.579  25.8130  0.00  0.00     0.000 O
ATOM    111  HD  IDS B   6      13.387  19.943  26.1660  0.00  0.00     0.000 HD
BRANCH 104 111
ATOM    111   O  IDS B   6      14.334  18.331  23.0560  0.00  0.00     0.000 O
ATOM    112   S  IDS B   6      13.246  17.901  21.9630  0.00  0.00     0.000 S
ATOM    113   O  IDS B   6      12.592  16.735  22.5360  0.00  0.00     0.000 OA
ATOM    114   O  IDS B   6      12.358  19.043  21.7170  0.00  0.00     0.000 OA
ATOM    115   O  IDS B   6      14.132  17.595  20.8600  0.00  0.00     0.000 OA
ENDBRANCH 104 111
BRANCH 107 116
ATOM    116   C  IDS B   6      17.488  18.160  26.5940  0.00  0.00     0.000 C
ATOM    117   O  IDS B   6      17.816  18.543  27.6890  0.00  0.00     0.000 OA
ATOM    118   O  IDS B   6      18.268  17.585  25.8520  0.00  0.00     0.000 OA
ENDBRANCH 107 116
BRANCH 103 119
ATOM    119  O4  SGN B   7      13.259  17.668  26.3710  0.00  0.00     0.000 O
BRANCH 119 123
ATOM    120  C1  SGN B   7      11.149  15.299  29.0960  0.00  0.00     0.000 C
ATOM    121  C2  SGN B   7      12.687  15.284  29.1790  0.00  0.00     0.000 C
ATOM    122  C3  SGN B   7      13.279  16.475  28.4140  0.00  0.00     0.000 C
ATOM    123  C4  SGN B   7      12.739  16.493  26.9940  0.00  0.00     0.000 C
ATOM    124  C5  SGN B   7      11.202  16.500  27.0190  0.00  0.00     0.000 C
ATOM    125  O5  SGN B   7      10.689  15.362  27.7460  0.00  0.00     0.000 O
ATOM    126   O  SGN B   7      14.707  16.375  28.4290  0.00  0.00     0.000 O
ATOM    128  HD  SGN B   7      13.947  16.089  28.7290  0.00  0.00     0.000 HD
BRANCH 121 130
ATOM    128   N  SGN B   7      13.059  14.022  29.8230  0.00  0.00     0.000 N
ATOM    130  HD  SGN B   7      13.896  14.241  29.7860  0.00  0.00     0.000 HD
ATOM    130   S  SGN B   7      13.566  13.954  31.3500  0.00  0.00     0.000 S
ATOM    131   O  SGN B   7      12.596  14.678  32.0970  0.00  0.00     0.000 OA
ATOM    132   O  SGN B   7      13.851  12.601  31.6660  0.00  0.00     0.000 OA
ATOM    133   O  SGN B   7      14.972  14.631  31.2100  0.00  0.00     0.000 OA
ENDBRANCH 121 130
BRANCH 124 134
ATOM    134   C  SGN B   7      10.573  16.402  25.6600  0.00  0.00     0.000 C
ATOM    135   O  SGN B   7       9.402  17.235  25.6370  0.00  0.00     0.000 O
ATOM    136   S  SGN B   7       8.681  17.391  24.2500  0.00  0.00     0.000 S
ATOM    137   O  SGN B   7       7.494  18.174  24.4940  0.00  0.00     0.000 OA
ATOM    138   O  SGN B   7       8.389  16.042  23.8210  0.00  0.00     0.000 OA
ATOM    139   O  SGN B   7       9.686  18.073  23.4490  0.00  0.00     0.000 OA
ENDBRANCH 124 134
BRANCH 120 140
ATOM    140  O4  IDS B   8      10.304  16.178  29.6450  0.00  0.00     0.000 O
BRANCH 140 144
ATOM    141  C1  IDS B   8       8.956  19.355  30.6700  0.00  0.00     0.000 C
ATOM    142  C2  IDS B   8      10.486  19.081  30.7230  0.00  0.00     0.000 C
ATOM    143  C3  IDS B   8      10.837  17.747  31.4070  0.00  0.00     0.000 C
ATOM    144  C4  IDS B   8       9.919  16.612  30.9560  0.00  0.00     0.000 C
ATOM    145  C5  IDS B   8       8.457  17.086  30.9460  0.00  0.00     0.000 C
ATOM    146  O5  IDS B   8       8.280  18.232  30.1180  0.00  0.00     0.000 O
BRANCH 142 147
ATOM    147   O  IDS B   8      11.026  19.021  29.3390  0.00  0.00     0.000 O
ATOM    148   S  IDS B   8      11.784  20.296  28.6820  0.00  0.00     0.000 S
ATOM    149   O  IDS B   8      11.461  21.457  29.4810  0.00  0.00     0.000 OA
ATOM    150   O  IDS B   8      13.197  19.967  28.7150  0.00  0.00     0.000 OA
ATOM    151   O  IDS B   8      11.256  20.402  27.3350  0.00  0.00     0.000 OA
ENDBRANCH 142 147
BRANCH 145 152
ATOM    152   C  IDS B   8       7.507  16.033  30.4120  0.00  0.00     0.000 C
ATOM    153   O  IDS B   8       7.497  14.916  30.9160  0.00  0.00     0.000 OA
ATOM    154   O  IDS B   8       6.749  16.314  29.5010  0.00  0.00     0.000 OA
ENDBRANCH 145 152
ENDBRANCH 140 144
ENDBRANCH 120 140
ENDBRANCH 119 123
ENDBRANCH 103 119
ENDBRANCH 102 106
ENDBRANCH 82 102
ENDBRANCH 81 85
ENDBRANCH 65 81
ENDBRANCH 64 68
ENDBRANCH 41 64
ENDBRANCH 40 44
ENDBRANCH 24 40
ENDBRANCH 23 27
ENDBRANCH 1 23
TORSDOF 31
ENDMDL
MODEL 4
REMARK VINA RESULT:      -8.9      2.604      4.079
ROOT
ATOM      1  C1  SGN B   1      28.640  11.213  14.0450  0.00  0.00     0.000 C
ATOM      2  C2  SGN B   1      29.108   9.749  14.0770  0.00  0.00     0.000 C
ATOM      3  C3  SGN B   1      28.049   8.827  13.4640  0.00  0.00     0.000 C
ATOM      4  C4  SGN B   1      26.712   9.015  14.1740  0.00  0.00     0.000 C
ATOM      5  C5  SGN B   1      26.381  10.505  14.2290  0.00  0.00     0.000 C
ATOM      6  O5  SGN B   1      27.468  11.218  14.8490  0.00  0.00     0.000 O
ATOM      7   O  SGN B   1      28.465   7.469  13.5350  0.00  0.00     0.000 O
ATOM      9  HD  SGN B   1      28.434   7.688  14.3730  0.00  0.00     0.000 HD
ATOM      9   O  SGN B   1      25.703   8.316  13.4700  0.00  0.00     0.000 O
ATOM     11  HD  SGN B   1      25.672   8.535  14.3070  0.00  0.00     0.000 HD
ENDROOT
BRANCH 2 13
ATOM     11   N  SGN B   1      30.476   9.632  14.6160  0.00  0.00     0.000 N
ATOM     13  HD  SGN B   1      30.252  10.312  14.1300  0.00  0.00     0.000 HD
ATOM     13   S  SGN B   1      31.750  10.280  13.8760  0.00  0.00     0.000 S
ATOM     14   O  SGN B   1      31.337  10.981  12.7240  0.00  0.00     0.000 OA
ATOM     15   O  SGN B   1      32.547  10.944  14.8520  0.00  0.00     0.000 OA
ATOM     16   O  SGN B   1      32.487   8.957  13.5020  0.00  0.00     0.000 OA
ENDBRANCH 2 13
BRANCH 5 17
ATOM     17   C  SGN B   1      25.130  10.828  15.0080  0.00  0.00     0.000 C
ATOM     18   O  SGN B   1      25.100  10.107  16.2560  0.00  0.00     0.000 O
ATOM     19   S  SGN B   1      23.711   9.410  16.6310  0.00  0.00     0.000 S
ATOM     20   O  SGN B   1      23.869   8.970  18.0010  0.00  0.00     0.000 OA
ATOM     21   O  SGN B   1      22.734  10.461  16.4700  0.00  0.00     0.000 OA
ATOM     22   O  SGN B   1      23.567   8.324  15.6860  0.00  0.00     0.000 OA
ENDBRANCH 5 17
BRANCH 1 23
ATOM     23  O4  IDS B   2      28.681  12.315  13.2420  0.00  0.00     0.000 O
BRANCH 23 27
ATOM     24  C1  IDS B   2      27.249  15.600  15.3370  0.00  0.00     0.000 C
ATOM     25  C2  IDS B   2      26.535  15.298  14.0010  0.00  0.00     0.000 C
ATOM     26  C3  IDS B   2      26.930  13.923  13.4700  0.00  0.00     0.000 C
ATOM     27  C4  IDS B   2      28.435  13.734  13.3310  0.00  0.00     0.000 C
ATOM     28  C5  IDS B   2      29.163  14.436  14.4950  0.00  0.00     0.000 C
ATOM     29  O5  IDS B   2      28.285  14.643  15.5920  0.00  0.00     0.000 O
ATOM     30   O  IDS B   2      26.354  13.735  12.1830  0.00  0.00     0.000 O
ATOM     32  HD  IDS B   2      26.789  14.137  11.5510  0.00  0.00     0.000 HD
BRANCH 25 32
ATOM     32   O  IDS B   2      25.058  15.320  14.1360  0.00  0.00     0.000 O
ATOM     33   S  IDS B   2      24.127  16.433  13.3510  0.00  0.00     0.000 S
ATOM     34   O  IDS B   2      22.784  16.292  13.8910  0.00  0.00     0.000 OA
ATOM     35   O  IDS B   2      24.660  17.766  13.5920  0.00  0.00     0.000 OA
ATOM     36   O  IDS B   2      24.174  16.065  11.9540  0.00  0.00     0.000 OA
ENDBRANCH 25 32
BRANCH 28 37
ATOM     37   C  IDS B   2      30.460  13.791  15.0270  0.00  0.00     0.000 C
ATOM     38   O  IDS B   2      30.285  13.154  16.0380  0.00  0.00     0.000 OA
ATOM     39   O  IDS B   2      31.594  13.823  14.4890  0.00  0.00     0.000 OA
ENDBRANCH 28 37
BRANCH 24 40
ATOM     40  O4  SUS B   3      27.082  16.799  15.9330  0.00  0.00     0.000 O
BRANCH 40 44
ATOM     41  C1  SUS B   3      26.342  17.471  20.0010  0.00  0.00     0.000 C
ATOM     42  C2  SUS B   3      27.702  17.939  19.4450  0.00  0.00     0.000 C
ATOM     43  C3  SUS B   3      27.609  18.061  17.9260  0.00  0.00     0.000 C
ATOM     44  C4  SUS B   3      27.131  16.735  17.3540  0.00  0.00     0.000 C
ATOM     45  C5  SUS B   3      25.752  16.433  17.9040  0.00  0.00     0.000 C
ATOM     46  O5  SUS B   3      25.858  16.299  19.3360  0.00  0.00     0.000 O
BRANCH 42 49
ATOM     47   N  SUS B   3      28.279  17.780  20.7900  0.00  0.00     0.000 N
ATOM     49  HD  SUS B   3      27.719  17.716  21.4470  0.00  0.00     0.000 HD
ATOM     49   S  SUS B   3      29.336  18.930  21.1490  0.00  0.00     0.000 S
ATOM     50   O  SUS B   3      28.722  20.195  21.0430  0.00  0.00     0.000 OA
ATOM     51   O  SUS B   3      29.529  18.539  22.6370  0.00  0.00     0.000 OA
ATOM     52   O  SUS B   3      30.523  18.717  20.4200  0.00  0.00     0.000 OA
ENDBRANCH 42 49
BRANCH 43 53
ATOM     53   O  SUS B   3      28.956  18.373  17.4110  0.00  0.00     0.000 O
ATOM     54   S  SUS B   3      29.182  19.863  16.7540  0.00  0.00     0.000 S
ATOM     55   O  SUS B   3      29.153  20.829  17.8430  0.00  0.00     0.000 OA
ATOM     56   O  SUS B   3      30.470  19.764  16.0920  0.00  0.00     0.000 OA
ATOM     57   O  SUS B   3      28.069  20.079  15.8240  0.00  0.00     0.000 OA
ENDBRANCH 43 53
BRANCH 45 58
ATOM     58   C  SUS B   3      25.165  15.175  17.3030  0.00  0.00     0.000 C
ATOM     59   S  SUS B   3      23.092  13.664  17.3720  0.00  0.00     0.000 S
ATOM     60   O  SUS B   3      23.800  15.035  17.7290  0.00  0.00     0.000 O
ATOM     61   O  SUS B   3      23.596  12.713  18.3450  0.00  0.00     0.000 OA
ATOM     62   O  SUS B   3      21.714  14.008  17.5940  0.00  0.00     0.000 OA
ATOM     63   O  SUS B   3      23.442  13.396  16.0220  0.00  0.00     0.000 OA
ENDBRANCH 45 58
BRANCH 41 64
ATOM     64  O4  IDS B   4      25.414  18.477  20.1140  0.00  0.00     0.000 O
BRANCH 64 68
ATOM     65  C1  IDS B   4      22.960  20.022  22.3200  0.00  0.00     0.000 C
ATOM     66  C2  IDS B   4      24.005  19.052  22.8860  0.00  0.00     0.000 C
ATOM     67  C3  IDS B   4      24.172  17.772  22.0860  0.00  0.00     0.000 C
ATOM     68  C4  IDS B   4      24.134  18.003  20.5870  0.00  0.00     0.000 C
ATOM     69  C5  IDS B   4      22.976  18.963  20.2820  0.00  0.00     0.000 C
ATOM     70  O5  IDS B   4      23.213  20.210  20.9390  0.00  0.00     0.000 O
ATOM     71   O  IDS B   4      23.124  16.903  22.4620  0.00  0.00     0.000 O
ATOM     73  HD  IDS B   4      23.652  17.583  22.5490  0.00  0.00     0.000 HD
BRANCH 66 73
ATOM     73   O  IDS B   4      25.321  19.706  22.8570  0.00  0.00     0.000 O
ATOM     74   S  IDS B   4      26.109  19.887  24.2580  0.00  0.00     0.000 S
ATOM     75   O  IDS B   4      25.221  20.620  25.1350  0.00  0.00     0.000 OA
ATOM     76   O  IDS B   4      27.274  20.629  23.8490  0.00  0.00     0.000 OA
ATOM     77   O  IDS B   4      26.389  18.548  24.7190  0.00  0.00     0.000 OA
ENDBRANCH 66 73
BRANCH 69 78
ATOM     78   C  IDS B   4      22.666  19.125  18.8000  0.00  0.00     0.000 C
ATOM     79   O  IDS B   4      22.796  18.150  18.0600  0.00  0.00     0.000 OA
ATOM     80   O  IDS B   4      22.191  20.205  18.4050  0.00  0.00     0.000 OA
ENDBRANCH 69 78
BRANCH 65 81
ATOM     81  O4  SGN B   5      21.713  19.593  22.6620  0.00  0.00     0.000 O
BRANCH 81 85
ATOM     82  C1  SGN B   5      17.883  20.897  23.7880  0.00  0.00     0.000 C
ATOM     83  C2  SGN B   5      18.249  21.009  22.3000  0.00  0.00     0.000 C
ATOM     84  C3  SGN B   5      19.441  20.092  21.9940  0.00  0.00     0.000 C
ATOM     85  C4  SGN B   5      20.592  20.442  22.9200  0.00  0.00     0.000 C
ATOM     86  C5  SGN B   5      20.118  20.272  24.3610  0.00  0.00     0.000 C
ATOM     87  O5  SGN B   5      19.015  21.169  24.5930  0.00  0.00     0.000 O
ATOM     88   O  SGN B   5      19.819  20.232  20.6420  0.00  0.00     0.000 O
ATOM     90  HD  SGN B   5      19.355  19.577  20.9690  0.00  0.00     0.000 HD
BRANCH 83 92
ATOM     90   N  SGN B   5      16.824  20.885  21.9340  0.00  0.00     0.000 N
ATOM     92  HD  SGN B   5      16.339  20.712  22.6300  0.00  0.00     0.000 HD
ATOM     92   S  SGN B   5      16.208  21.968  20.9330  0.00  0.00     0.000 S
ATOM     93   O  SGN B   5      14.838  21.580  20.7900  0.00  0.00     0.000 OA
ATOM     94   O  SGN B   5      16.536  23.237  21.4880  0.00  0.00     0.000 OA
ATOM     95   O  SGN B   5      17.009  21.813  19.6590  0.00  0.00     0.000 OA
ENDBRANCH 83 92
BRANCH 86 96
ATOM     96   C  SGN B   5      21.174  20.578  25.4030  0.00  0.00     0.000 C
ATOM     97   O  SGN B   5      20.724  20.190  26.7030  0.00  0.00     0.000 O
ATOM     98   S  SGN B   5      21.729  19.273  27.5530  0.00  0.00     0.000 S
ATOM     99   O  SGN B   5      21.098  19.229  28.8500  0.00  0.00     0.000 OA
ATOM    100   O  SGN B   5      21.820  18.019  26.8960  0.00  0.00     0.000 OA
ATOM    101   O  SGN B   5      22.959  19.995  27.5470  0.00  0.00     0.000 OA
ENDBRANCH 86 96
BRANCH 82 102
ATOM    102  O4  IDS B   6      17.353  19.683  24.1080  0.00  0.00     0.000 O
BRANCH 102 106
ATOM    103  C1  IDS B   6      14.575  17.592  25.1890  0.00  0.00     0.000 C
ATOM    104  C2  IDS B   6      14.331  18.832  24.3150  0.00  0.00     0.000 C
ATOM    105  C3  IDS B   6      15.045  20.090  24.7710  0.00  0.00     0.000 C
ATOM    106  C4  IDS B   6      16.462  19.821  25.2440  0.00  0.00     0.000 C
ATOM    107  C5  IDS B   6      16.487  18.560  26.1120  0.00  0.00     0.000 C
ATOM    108  O5  IDS B   6      15.961  17.426  25.4190  0.00  0.00     0.000 O
ATOM    109   O  IDS B   6      14.274  20.686  25.8010  0.00  0.00     0.000 O
ATOM    111  HD  IDS B   6      13.804  20.030  26.1160  0.00  0.00     0.000 HD
BRANCH 104 111
ATOM    111   O  IDS B   6      14.836  18.569  22.9580  0.00  0.00     0.000 O
ATOM    112   S  IDS B   6      13.793  18.073  21.8500  0.00  0.00     0.000 S
ATOM    113   O  IDS B   6      13.233  16.846  22.3970  0.00  0.00     0.000 OA
ATOM    114   O  IDS B   6      12.815  19.143  21.6200  0.00  0.00     0.000 OA
ATOM    115   O  IDS B   6      14.706  17.861  20.7480  0.00  0.00     0.000 OA
ENDBRANCH 104 111
BRANCH 107 116
ATOM    116   C  IDS B   6      17.918  18.278  26.5520  0.00  0.00     0.000 C
ATOM    117   O  IDS B   6      18.253  18.720  27.6220  0.00  0.00     0.000 OA
ATOM    118   O  IDS B   6      18.686  17.644  25.8460  0.00  0.00     0.000 OA
ENDBRANCH 107 116
BRANCH 103 119
ATOM    119  O4  SGN B   7      13.701  17.747  26.2170  0.00  0.00     0.000 O
BRANCH 119 123
ATOM    120  C1  SGN B   7      11.378  15.245  28.6320  0.00  0.00     0.000 C
ATOM    121  C2  SGN B   7      12.896  15.277  28.8900  0.00  0.00     0.000 C
ATOM    122  C3  SGN B   7      13.530  16.505  28.2240  0.00  0.00     0.000 C
ATOM    123  C4  SGN B   7      13.155  16.541  26.7510  0.00  0.00     0.000 C
ATOM    124  C5  SGN B   7      11.625  16.499  26.6010  0.00  0.00     0.000 C
ATOM    125  O5  SGN B   7      11.072  15.327  27.2410  0.00  0.00     0.000 O
ATOM    126   O  SGN B   7      14.950  16.450  28.3990  0.00  0.00     0.000 O
ATOM    128  HD  SGN B   7      14.171  16.133  28.6040  0.00  0.00     0.000 HD
BRANCH 121 130
ATOM    128   N  SGN B   7      13.223  14.010  29.5490  0.00  0.00     0.000 N
ATOM    130  HD  SGN B   7      14.055  14.244  29.6030  0.00  0.00     0.000 HD
ATOM    130   S  SGN B   7      13.569  13.922  31.1190  0.00  0.00     0.000 S
ATOM    131   O  SGN B   7      12.512  14.616  31.7730  0.00  0.00     0.000 OA
ATOM    132   O  SGN B   7      13.845  12.568  31.4410  0.00  0.00     0.000 OA
ATOM    133   O  SGN B   7      14.968  14.626  31.1390  0.00  0.00     0.000 OA
ENDBRANCH 121 130
BRANCH 124 134
ATOM    134   C  SGN B   7      11.157  16.414  25.1780  0.00  0.00     0.000 C
ATOM    135   O  SGN B   7       9.720  16.385  25.1690  0.00  0.00     0.000 O
ATOM    136   S  SGN B   7       9.027  16.451  23.7610  0.00  0.00     0.000 S
ATOM    137   O  SGN B   7       7.611  16.303  23.9980  0.00  0.00     0.000 OA
ATOM    138   O  SGN B   7       9.591  15.353  23.0100  0.00  0.00     0.000 OA
ATOM    139   O  SGN B   7       9.413  17.770  23.2840  0.00  0.00     0.000 OA
ENDBRANCH 124 134
BRANCH 120 140
ATOM    140  O4  IDS B   8      10.446  16.083  29.1010  0.00  0.00     0.000 O
BRANCH 140 144
ATOM    141  C1  IDS B   8       7.962  18.602  29.7680  0.00  0.00     0.000 C
ATOM    142  C2  IDS B   8       9.451  18.988  29.5370  0.00  0.00     0.000 C
ATOM    143  C3  IDS B   8      10.431  18.141  30.3700  0.00  0.00     0.000 C
ATOM    144  C4  IDS B   8      10.062  16.659  30.3550  0.00  0.00     0.000 C
ATOM    145  C5  IDS B   8       8.552  16.486  30.5750  0.00  0.00     0.000 C
ATOM    146  O5  IDS B   8       7.793  17.199  29.6020  0.00  0.00     0.000 O
BRANCH 142 147
ATOM    147   O  IDS B   8       9.800  18.784  28.1060  0.00  0.00     0.000 O
ATOM    148   S  IDS B   8      10.107  20.044  27.1320  0.00  0.00     0.000 S
ATOM    149   O  IDS B   8       9.603  21.233  27.7820  0.00  0.00     0.000 OA
ATOM    150   O  IDS B   8      11.548  20.063  26.9660  0.00  0.00     0.000 OA
ATOM    151   O  IDS B   8       9.395  19.757  25.9010  0.00  0.00     0.000 OA
ENDBRANCH 142 147
BRANCH 145 152
ATOM    152   C  IDS B   8       8.109  15.041  30.4720  0.00  0.00     0.000 C
ATOM    153   O  IDS B   8       8.514  14.224  31.2910  0.00  0.00     0.000 OA
ATOM    154   O  IDS B   8       7.339  14.709  29.5880  0.00  0.00     0.000 OA
ENDBRANCH 145 152
ENDBRANCH 140 144
ENDBRANCH 120 140
ENDBRANCH 119 123
ENDBRANCH 103 119
ENDBRANCH 102 106
ENDBRANCH 82 102
ENDBRANCH 81 85
ENDBRANCH 65 81
ENDBRANCH 64 68
ENDBRANCH 41 64
ENDBRANCH 40 44
ENDBRANCH 24 40
ENDBRANCH 23 27
ENDBRANCH 1 23
TORSDOF 31
ENDMDL
MODEL 5
REMARK VINA RESULT:      -8.9      1.346      2.777
ROOT
ATOM      1  C1  SGN B   1      28.692  11.307  14.0590  0.00  0.00     0.000 C
ATOM      2  C2  SGN B   1      29.175   9.847  14.0620  0.00  0.00     0.000 C
ATOM      3  C3  SGN B   1      28.127   8.927  13.4260  0.00  0.00     0.000 C
ATOM      4  C4  SGN B   1      26.787   9.086  14.1370  0.00  0.00     0.000 C
ATOM      5  C5  SGN B   1      26.440  10.570  14.2210  0.00  0.00     0.000 C
ATOM      6  O5  SGN B   1      27.517  11.282  14.8600  0.00  0.00     0.000 O
ATOM      7   O  SGN B   1      28.559   7.572  13.4710  0.00  0.00     0.000 O
ATOM      9  HD  SGN B   1      28.523   7.774  14.3130  0.00  0.00     0.000 HD
ATOM      9   O  SGN B   1      25.787   8.390  13.4150  0.00  0.00     0.000 O
ATOM     11  HD  SGN B   1      25.751   8.592  14.2570  0.00  0.00     0.000 HD
ENDROOT
BRANCH 2 13
ATOM     11   N  SGN B   1      30.544   9.725  14.5970  0.00  0.00     0.000 N
ATOM     13  HD  SGN B   1      30.313  10.419  14.1340  0.00  0.00     0.000 HD
ATOM     13   S  SGN B   1      31.811  10.410  13.8800  0.00  0.00     0.000 S
ATOM     14   O  SGN B   1      31.392  11.146  12.7530  0.00  0.00     0.000 OA
ATOM     15   O  SGN B   1      32.602  11.049  14.8780  0.00  0.00     0.000 OA
ATOM     16   O  SGN B   1      32.562   9.109  13.4610  0.00  0.00     0.000 OA
ENDBRANCH 2 13
BRANCH 5 17
ATOM     17   C  SGN B   1      25.183  10.863  15.0030  0.00  0.00     0.000 C
ATOM     18   O  SGN B   1      25.156  10.115  16.2340  0.00  0.00     0.000 O
ATOM     19   S  SGN B   1      23.772   9.396  16.5880  0.00  0.00     0.000 S
ATOM     20   O  SGN B   1      23.930   8.927  17.9480  0.00  0.00     0.000 OA
ATOM     21   O  SGN B   1      22.786  10.441  16.4470  0.00  0.00     0.000 OA
ATOM     22   O  SGN B   1      23.642   8.330  15.6190  0.00  0.00     0.000 OA
ENDBRANCH 5 17
BRANCH 1 23
ATOM     23  O4  IDS B   2      28.723  12.425  13.2800  0.00  0.00     0.000 O
BRANCH 23 27
ATOM     24  C1  IDS B   2      27.198  15.671  15.3700  0.00  0.00     0.000 C
ATOM     25  C2  IDS B   2      26.624  15.462  13.9510  0.00  0.00     0.000 C
ATOM     26  C3  IDS B   2      27.021  14.096  13.3980  0.00  0.00     0.000 C
ATOM     27  C4  IDS B   2      28.523  13.848  13.4120  0.00  0.00     0.000 C
ATOM     28  C5  IDS B   2      29.146  14.464  14.6810  0.00  0.00     0.000 C
ATOM     29  O5  IDS B   2      28.163  14.659  15.6860  0.00  0.00     0.000 O
ATOM     30   O  IDS B   2      26.581  13.992  12.0490  0.00  0.00     0.000 O
ATOM     32  HD  IDS B   2      27.098  14.402  11.4880  0.00  0.00     0.000 HD
BRANCH 25 32
ATOM     32   O  IDS B   2      25.142  15.541  13.9280  0.00  0.00     0.000 O
ATOM     33   S  IDS B   2      24.342  16.628  12.9780  0.00  0.00     0.000 S
ATOM     34   O  IDS B   2      22.947  16.569  13.3820  0.00  0.00     0.000 OA
ATOM     35   O  IDS B   2      24.901  17.956  13.1850  0.00  0.00     0.000 OA
ATOM     36   O  IDS B   2      24.518  16.162  11.6210  0.00  0.00     0.000 OA
ENDBRANCH 25 32
BRANCH 28 37
ATOM     37   C  IDS B   2      30.352  13.740  15.3160  0.00  0.00     0.000 C
ATOM     38   O  IDS B   2      31.374  13.899  14.6920  0.00  0.00     0.000 OA
ATOM     39   O  IDS B   2      30.364  13.097  16.3940  0.00  0.00     0.000 OA
ENDBRANCH 28 37
BRANCH 24 40
ATOM     40  O4  SUS B   3      27.013  16.848  16.0040  0.00  0.00     0.000 O
BRANCH 40 44
ATOM     41  C1  SUS B   3      26.209  17.368  20.0820  0.00  0.00     0.000 C
ATOM     42  C2  SUS B   3      27.566  17.879  19.5600  0.00  0.00     0.000 C
ATOM     43  C3  SUS B   3      27.491  18.051  18.0440  0.00  0.00     0.000 C
ATOM     44  C4  SUS B   3      27.045  16.737  17.4220  0.00  0.00     0.000 C
ATOM     45  C5  SUS B   3      25.665  16.391  17.9430  0.00  0.00     0.000 C
ATOM     46  O5  SUS B   3      25.755  16.210  19.3710  0.00  0.00     0.000 O
BRANCH 42 49
ATOM     47   N  SUS B   3      28.979  18.126  19.8970  0.00  0.00     0.000 N
ATOM     49  HD  SUS B   3      29.508  17.440  19.8710  0.00  0.00     0.000 HD
ATOM     49   S  SUS B   3      29.160  18.841  21.3180  0.00  0.00     0.000 S
ATOM     50   O  SUS B   3      28.561  18.061  22.3280  0.00  0.00     0.000 OA
ATOM     51   O  SUS B   3      30.704  18.726  21.3820  0.00  0.00     0.000 OA
ATOM     52   O  SUS B   3      28.765  20.190  21.2160  0.00  0.00     0.000 OA
ENDBRANCH 42 49
BRANCH 43 53
ATOM     53   O  SUS B   3      28.839  18.405  17.5590  0.00  0.00     0.000 O
ATOM     54   S  SUS B   3      29.035  19.905  16.9170  0.00  0.00     0.000 S
ATOM     55   O  SUS B   3      28.958  20.862  18.0120  0.00  0.00     0.000 OA
ATOM     56   O  SUS B   3      30.338  19.848  16.2800  0.00  0.00     0.000 OA
ATOM     57   O  SUS B   3      27.935  20.097  15.9660  0.00  0.00     0.000 OA
ENDBRANCH 43 53
BRANCH 45 58
ATOM     58   C  SUS B   3      25.110  15.144  17.2920  0.00  0.00     0.000 C
ATOM     59   S  SUS B   3      22.907  13.962  16.7110  0.00  0.00     0.000 S
ATOM     60   O  SUS B   3      23.682  15.263  17.1730  0.00  0.00     0.000 O
ATOM     61   O  SUS B   3      22.837  13.123  17.8930  0.00  0.00     0.000 OA
ATOM     62   O  SUS B   3      21.633  14.523  16.3520  0.00  0.00     0.000 OA
ATOM     63   O  SUS B   3      23.664  13.431  15.6330  0.00  0.00     0.000 OA
ENDBRANCH 45 58
BRANCH 41 64
ATOM     64  O4  IDS B   4      25.261  18.352  20.2160  0.00  0.00     0.000 O
BRANCH 64 68
ATOM     65  C1  IDS B   4      22.409  20.265  21.4340  0.00  0.00     0.000 C
ATOM     66  C2  IDS B   4      23.785  20.427  22.0920  0.00  0.00     0.000 C
ATOM     67  C3  IDS B   4      24.494  19.118  22.3960  0.00  0.00     0.000 C
ATOM     68  C4  IDS B   4      24.333  18.090  21.2920  0.00  0.00     0.000 C
ATOM     69  C5  IDS B   4      22.865  18.092  20.8470  0.00  0.00     0.000 C
ATOM     70  O5  IDS B   4      22.531  19.383  20.3320  0.00  0.00     0.000 O
ATOM     71   O  IDS B   4      23.948  18.615  23.5990  0.00  0.00     0.000 O
ATOM     73  HD  IDS B   4      24.119  19.222  23.0040  0.00  0.00     0.000 HD
BRANCH 66 73
ATOM     73   O  IDS B   4      24.671  21.144  21.1640  0.00  0.00     0.000 O
ATOM     74   S  IDS B   4      25.334  22.531  21.6690  0.00  0.00     0.000 S
ATOM     75   O  IDS B   4      24.238  23.392  22.0590  0.00  0.00     0.000 OA
ATOM     76   O  IDS B   4      26.036  22.971  20.4900  0.00  0.00     0.000 OA
ATOM     77   O  IDS B   4      26.194  22.168  22.7710  0.00  0.00     0.000 OA
ENDBRANCH 66 73
BRANCH 69 78
ATOM     78   C  IDS B   4      22.493  16.962  19.8970  0.00  0.00     0.000 C
ATOM     79   O  IDS B   4      22.743  15.804  20.2300  0.00  0.00     0.000 OA
ATOM     80   O  IDS B   4      21.853  17.237  18.8650  0.00  0.00     0.000 OA
ENDBRANCH 69 78
BRANCH 65 81
ATOM     81  O4  SGN B   5      21.489  19.937  22.3840  0.00  0.00     0.000 O
BRANCH 81 85
ATOM     82  C1  SGN B   5      17.411  20.213  23.3480  0.00  0.00     0.000 C
ATOM     83  C2  SGN B   5      17.763  19.711  21.9390  0.00  0.00     0.000 C
ATOM     84  C3  SGN B   5      19.222  19.235  21.9130  0.00  0.00     0.000 C
ATOM     85  C4  SGN B   5      20.124  20.360  22.3890  0.00  0.00     0.000 C
ATOM     86  C5  SGN B   5      19.695  20.754  23.8000  0.00  0.00     0.000 C
ATOM     87  O5  SGN B   5      18.329  21.209  23.7570  0.00  0.00     0.000 O
ATOM     88   O  SGN B   5      19.569  18.826  20.6080  0.00  0.00     0.000 O
ATOM     90  HD  SGN B   5      19.372  18.296  21.2650  0.00  0.00     0.000 HD
BRANCH 83 92
ATOM     90   N  SGN B   5      16.308  19.909  21.7850  0.00  0.00     0.000 N
ATOM     92  HD  SGN B   5      16.099  20.746  21.8560  0.00  0.00     0.000 HD
ATOM     92   S  SGN B   5      15.563  19.123  20.6100  0.00  0.00     0.000 S
ATOM     93   O  SGN B   5      14.194  19.528  20.7250  0.00  0.00     0.000 OA
ATOM     94   O  SGN B   5      16.296  19.414  19.4260  0.00  0.00     0.000 OA
ATOM     95   O  SGN B   5      15.781  17.660  20.9270  0.00  0.00     0.000 OA
ENDBRANCH 83 92
BRANCH 86 96
ATOM     96   C  SGN B   5      20.521  21.867  24.4120  0.00  0.00     0.000 C
ATOM     97   O  SGN B   5      19.687  22.966  24.7850  0.00  0.00     0.000 O
ATOM     98   S  SGN B   5      19.862  23.509  26.2830  0.00  0.00     0.000 S
ATOM     99   O  SGN B   5      19.060  24.708  26.2830  0.00  0.00     0.000 OA
ATOM    100   O  SGN B   5      19.405  22.492  27.1610  0.00  0.00     0.000 OA
ATOM    101   O  SGN B   5      21.260  23.763  26.4070  0.00  0.00     0.000 OA
ENDBRANCH 86 96
BRANCH 82 102
ATOM    102  O4  IDS B   6      17.362  19.206  24.2660  0.00  0.00     0.000 O
BRANCH 102 106
ATOM    103  C1  IDS B   6      15.652  17.820  27.1660  0.00  0.00     0.000 C
ATOM    104  C2  IDS B   6      14.922  18.770  26.2030  0.00  0.00     0.000 C
ATOM    105  C3  IDS B   6      15.689  20.025  25.8350  0.00  0.00     0.000 C
ATOM    106  C4  IDS B   6      17.164  19.761  25.5910  0.00  0.00     0.000 C
ATOM    107  C5  IDS B   6      17.704  18.812  26.6650  0.00  0.00     0.000 C
ATOM    108  O5  IDS B   6      16.971  17.586  26.7100  0.00  0.00     0.000 O
ATOM    109   O  IDS B   6      15.511  20.972  26.8750  0.00  0.00     0.000 O
ATOM    111  HD  IDS B   6      15.308  20.489  27.5640  0.00  0.00     0.000 HD
BRANCH 104 111
ATOM    111   O  IDS B   6      14.684  18.072  24.9300  0.00  0.00     0.000 O
ATOM    112   S  IDS B   6      13.304  18.346  24.1680  0.00  0.00     0.000 S
ATOM    113   O  IDS B   6      12.276  17.961  25.1220  0.00  0.00     0.000 OA
ATOM    114   O  IDS B   6      13.268  19.757  23.7650  0.00  0.00     0.000 OA
ATOM    115   O  IDS B   6      13.458  17.421  23.0650  0.00  0.00     0.000 OA
ENDBRANCH 104 111
BRANCH 107 116
ATOM    116   C  IDS B   6      19.174  18.525  26.3910  0.00  0.00     0.000 C
ATOM    117   O  IDS B   6      19.976  19.263  26.9060  0.00  0.00     0.000 OA
ATOM    118   O  IDS B   6      19.518  17.596  25.6760  0.00  0.00     0.000 OA
ENDBRANCH 107 116
BRANCH 103 119
ATOM    119  O4  SGN B   7      15.412  18.357  28.3900  0.00  0.00     0.000 O
BRANCH 119 123
ATOM    120  C1  SGN B   7      14.666  16.889  32.2340  0.00  0.00     0.000 C
ATOM    121  C2  SGN B   7      16.136  17.036  31.8000  0.00  0.00     0.000 C
ATOM    122  C3  SGN B   7      16.245  17.941  30.5650  0.00  0.00     0.000 C
ATOM    123  C4  SGN B   7      15.327  17.425  29.4690  0.00  0.00     0.000 C
ATOM    124  C5  SGN B   7      13.890  17.308  30.0020  0.00  0.00     0.000 C
ATOM    125  O5  SGN B   7      13.835  16.448  31.1620  0.00  0.00     0.000 O
ATOM    126   O  SGN B   7      17.609  17.975  30.1310  0.00  0.00     0.000 O
ATOM    128  HD  SGN B   7      17.036  17.744  30.7380  0.00  0.00     0.000 HD
BRANCH 121 130
ATOM    128   N  SGN B   7      16.875  16.105  32.6560  0.00  0.00     0.000 N
ATOM    130  HD  SGN B   7      17.616  16.317  32.2610  0.00  0.00     0.000 HD
ATOM    130   S  SGN B   7      17.839  16.609  33.8430  0.00  0.00     0.000 S
ATOM    131   O  SGN B   7      17.055  17.529  34.5940  0.00  0.00     0.000 OA
ATOM    132   O  SGN B   7      18.406  15.471  34.4720  0.00  0.00     0.000 OA
ATOM    133   O  SGN B   7      19.013  17.226  33.0090  0.00  0.00     0.000 OA
ENDBRANCH 121 130
BRANCH 124 134
ATOM    134   C  SGN B   7      12.928  16.698  29.0260  0.00  0.00     0.000 C
ATOM    135   O  SGN B   7      13.185  15.285  28.9530  0.00  0.00     0.000 O
ATOM    136   S  SGN B   7      12.180  14.434  28.0960  0.00  0.00     0.000 S
ATOM    137   O  SGN B   7      12.696  13.086  28.0850  0.00  0.00     0.000 OA
ATOM    138   O  SGN B   7      12.183  15.050  26.7880  0.00  0.00     0.000 OA
ATOM    139   O  SGN B   7      10.935  14.586  28.8320  0.00  0.00     0.000 OA
ENDBRANCH 124 134
BRANCH 120 140
ATOM    140  O4  IDS B   8      13.862  17.827  32.7480  0.00  0.00     0.000 O
BRANCH 140 144
ATOM    141  C1  IDS B   8      12.338  21.063  33.1590  0.00  0.00     0.000 C
ATOM    142  C2  IDS B   8      13.845  20.928  32.7960  0.00  0.00     0.000 C
ATOM    143  C3  IDS B   8      14.595  19.929  33.6950  0.00  0.00     0.000 C
ATOM    144  C4  IDS B   8      13.794  18.648  33.9210  0.00  0.00     0.000 C
ATOM    145  C5  IDS B   8      12.330  18.988  34.2420  0.00  0.00     0.000 C
ATOM    146  O5  IDS B   8      11.735  19.776  33.2130  0.00  0.00     0.000 O
BRANCH 142 147
ATOM    147   O  IDS B   8      13.976  20.446  31.3960  0.00  0.00     0.000 O
ATOM    148   S  IDS B   8      14.313  21.473  30.1860  0.00  0.00     0.000 S
ATOM    149   O  IDS B   8      14.054  22.812  30.6630  0.00  0.00     0.000 OA
ATOM    150   O  IDS B   8      15.711  21.250  29.8680  0.00  0.00     0.000 OA
ATOM    151   O  IDS B   8      13.417  21.099  29.1080  0.00  0.00     0.000 OA
ENDBRANCH 142 147
BRANCH 145 152
ATOM    152   C  IDS B   8      11.461  17.755  34.3790  0.00  0.00     0.000 C
ATOM    153   O  IDS B   8      10.548  17.567  33.5820  0.00  0.00     0.000 OA
ATOM    154   O  IDS B   8      11.690  16.953  35.2670  0.00  0.00     0.000 OA
ENDBRANCH 145 152
ENDBRANCH 140 144
ENDBRANCH 120 140
ENDBRANCH 119 123
ENDBRANCH 103 119
ENDBRANCH 102 106
ENDBRANCH 82 102
ENDBRANCH 81 85
ENDBRANCH 65 81
ENDBRANCH 64 68
ENDBRANCH 41 64
ENDBRANCH 40 44
ENDBRANCH 24 40
ENDBRANCH 23 27
ENDBRANCH 1 23
TORSDOF 31
ENDMDL
MODEL 6
REMARK VINA RESULT:      -8.6      3.438      5.333
ROOT
ATOM      1  C1  SGN B   1      28.651  11.244  14.0320  0.00  0.00     0.000 C
ATOM      2  C2  SGN B   1      29.042   9.759  14.1170  0.00  0.00     0.000 C
ATOM      3  C3  SGN B   1      27.930   8.872  13.5490  0.00  0.00     0.000 C
ATOM      4  C4  SGN B   1      26.612   9.157  14.2620  0.00  0.00     0.000 C
ATOM      5  C5  SGN B   1      26.360  10.663  14.2620  0.00  0.00     0.000 C
ATOM      6  O5  SGN B   1      27.490  11.341  14.8450  0.00  0.00     0.000 O
ATOM      7   O  SGN B   1      28.276   7.497  13.6700  0.00  0.00     0.000 O
ATOM      9  HD  SGN B   1      28.265   7.750  14.4980  0.00  0.00     0.000 HD
ATOM      9   O  SGN B   1      25.560   8.485  13.5940  0.00  0.00     0.000 O
ATOM     11  HD  SGN B   1      25.549   8.738  14.4230  0.00  0.00     0.000 HD
ENDROOT
BRANCH 2 13
ATOM     11   N  SGN B   1      30.409   9.572  14.6380  0.00  0.00     0.000 N
ATOM     13  HD  SGN B   1      30.216  10.259  14.1480  0.00  0.00     0.000 HD
ATOM     13   S  SGN B   1      31.706  10.142  13.8740  0.00  0.00     0.000 S
ATOM     14   O  SGN B   1      31.315  10.853  12.7200  0.00  0.00     0.000 OA
ATOM     15   O  SGN B   1      32.552  10.771  14.8310  0.00  0.00     0.000 OA
ATOM     16   O  SGN B   1      32.364   8.777  13.5040  0.00  0.00     0.000 OA
ENDBRANCH 2 13
BRANCH 5 17
ATOM     17   C  SGN B   1      25.135  11.081  15.0380  0.00  0.00     0.000 C
ATOM     18   O  SGN B   1      25.049  10.367  16.2870  0.00  0.00     0.000 O
ATOM     19   S  SGN B   1      23.611   9.777  16.6610  0.00  0.00     0.000 S
ATOM     20   O  SGN B   1      23.733   9.330  18.0320  0.00  0.00     0.000 OA
ATOM     21   O  SGN B   1      22.716  10.899  16.4960  0.00  0.00     0.000 OA
ATOM     22   O  SGN B   1      23.387   8.703  15.7180  0.00  0.00     0.000 OA
ENDBRANCH 5 17
BRANCH 1 23
ATOM     23  O4  IDS B   2      28.741  12.310  13.1870  0.00  0.00     0.000 O
BRANCH 23 27
ATOM     24  C1  IDS B   2      27.429  15.748  15.1080  0.00  0.00     0.000 C
ATOM     25  C2  IDS B   2      26.790  15.469  13.7290  0.00  0.00     0.000 C
ATOM     26  C3  IDS B   2      27.112  14.054  13.2550  0.00  0.00     0.000 C
ATOM     27  C4  IDS B   2      28.603  13.746  13.2300  0.00  0.00     0.000 C
ATOM     28  C5  IDS B   2      29.300  14.418  14.4300  0.00  0.00     0.000 C
ATOM     29  O5  IDS B   2      28.365  14.720  15.4560  0.00  0.00     0.000 O
ATOM     30   O  IDS B   2      26.615  13.879  11.9330  0.00  0.00     0.000 O
ATOM     32  HD  IDS B   2      27.125  14.230  11.3270  0.00  0.00     0.000 HD
BRANCH 25 32
ATOM     32   O  IDS B   2      25.314  15.608  13.7560  0.00  0.00     0.000 O
ATOM     33   S  IDS B   2      24.523  16.692  12.7950  0.00  0.00     0.000 S
ATOM     34   O  IDS B   2      23.142  16.705  13.2500  0.00  0.00     0.000 OA
ATOM     35   O  IDS B   2      25.141  18.003  12.9330  0.00  0.00     0.000 OA
ATOM     36   O  IDS B   2      24.629  16.172  11.4510  0.00  0.00     0.000 OA
ENDBRANCH 25 32
BRANCH 28 37
ATOM     37   C  IDS B   2      30.500  13.688  15.0670  0.00  0.00     0.000 C
ATOM     38   O  IDS B   2      31.513  13.798  14.4170  0.00  0.00     0.000 OA
ATOM     39   O  IDS B   2      30.520  13.086  16.1680  0.00  0.00     0.000 OA
ENDBRANCH 28 37
BRANCH 24 40
ATOM     40  O4  SUS B   3      27.315  16.971  15.6660  0.00  0.00     0.000 O
BRANCH 40 44
ATOM     41  C1  SUS B   3      26.798  17.847  19.7300  0.00  0.00     0.000 C
ATOM     42  C2  SUS B   3      28.167  18.184  19.1040  0.00  0.00     0.000 C
ATOM     43  C3  SUS B   3      28.021  18.258  17.5860  0.00  0.00     0.000 C
ATOM     44  C4  SUS B   3      27.417  16.955  17.0860  0.00  0.00     0.000 C
ATOM     45  C5  SUS B   3      26.042  16.785  17.7000  0.00  0.00     0.000 C
ATOM     46  O5  SUS B   3      26.196  16.695  19.1300  0.00  0.00     0.000 O
BRANCH 42 49
ATOM     47   N  SUS B   3      28.858  17.966  20.3870  0.00  0.00     0.000 N
ATOM     49  HD  SUS B   3      28.355  17.871  21.0860  0.00  0.00     0.000 HD
ATOM     49   S  SUS B   3      29.942  19.101  20.7050  0.00  0.00     0.000 S
ATOM     50   O  SUS B   3      29.324  20.368  20.7090  0.00  0.00     0.000 OA
ATOM     51   O  SUS B   3      30.262  18.644  22.1510  0.00  0.00     0.000 OA
ATOM     52   O  SUS B   3      31.062  18.925  19.8680  0.00  0.00     0.000 OA
ENDBRANCH 42 49
BRANCH 43 53
ATOM     53   O  SUS B   3      29.367  18.441  17.0090  0.00  0.00     0.000 O
ATOM     54   S  SUS B   3      29.698  19.899  16.3260  0.00  0.00     0.000 S
ATOM     55   O  SUS B   3      29.807  20.872  17.4040  0.00  0.00     0.000 OA
ATOM     56   O  SUS B   3      30.940  19.678  15.6080  0.00  0.00     0.000 OA
ATOM     57   O  SUS B   3      28.569  20.209  15.4430  0.00  0.00     0.000 OA
ENDBRANCH 43 53
BRANCH 45 58
ATOM     58   C  SUS B   3      25.334  15.557  17.1710  0.00  0.00     0.000 C
ATOM     59   S  SUS B   3      23.000  14.609  16.6840  0.00  0.00     0.000 S
ATOM     60   O  SUS B   3      23.933  15.843  17.0210  0.00  0.00     0.000 O
ATOM     61   O  SUS B   3      22.823  13.911  17.9430  0.00  0.00     0.000 OA
ATOM     62   O  SUS B   3      21.807  15.286  16.2520  0.00  0.00     0.000 OA
ATOM     63   O  SUS B   3      23.684  13.879  15.6750  0.00  0.00     0.000 OA
ENDBRANCH 45 58
BRANCH 41 64
ATOM     64  O4  IDS B   4      25.958  18.928  19.8380  0.00  0.00     0.000 O
BRANCH 64 68
ATOM     65  C1  IDS B   4      23.512  20.734  21.8460  0.00  0.00     0.000 C
ATOM     66  C2  IDS B   4      24.466  19.731  22.5080  0.00  0.00     0.000 C
ATOM     67  C3  IDS B   4      24.586  18.403  21.7800  0.00  0.00     0.000 C
ATOM     68  C4  IDS B   4      24.630  18.560  20.2710  0.00  0.00     0.000 C
ATOM     69  C5  IDS B   4      23.552  19.574  19.8650  0.00  0.00     0.000 C
ATOM     70  O5  IDS B   4      23.839  20.835  20.4720  0.00  0.00     0.000 O
ATOM     71   O  IDS B   4      23.467  17.622  22.1460  0.00  0.00     0.000 O
ATOM     73  HD  IDS B   4      24.034  18.272  22.2260  0.00  0.00     0.000 HD
BRANCH 66 73
ATOM     73   O  IDS B   4      25.822  20.299  22.5110  0.00  0.00     0.000 O
ATOM     74   S  IDS B   4      26.805  19.908  23.7350  0.00  0.00     0.000 S
ATOM     75   O  IDS B   4      26.117  20.286  24.9500  0.00  0.00     0.000 OA
ATOM     76   O  IDS B   4      27.969  20.707  23.4460  0.00  0.00     0.000 OA
ATOM     77   O  IDS B   4      27.018  18.485  23.6180  0.00  0.00     0.000 OA
ENDBRANCH 66 73
BRANCH 69 78
ATOM     78   C  IDS B   4      23.320  19.678  18.3640  0.00  0.00     0.000 C
ATOM     79   O  IDS B   4      24.295  19.691  17.6140  0.00  0.00     0.000 OA
ATOM     80   O  IDS B   4      22.151  19.639  17.9370  0.00  0.00     0.000 OA
ENDBRANCH 69 78
BRANCH 65 81
ATOM     81  O4  SGN B   5      22.226  20.402  22.1480  0.00  0.00     0.000 O
BRANCH 81 85
ATOM     82  C1  SGN B   5      18.373  21.980  22.7000  0.00  0.00     0.000 C
ATOM     83  C2  SGN B   5      19.068  22.286  21.3650  0.00  0.00     0.000 C
ATOM     84  C3  SGN B   5      20.212  21.288  21.1400  0.00  0.00     0.000 C
ATOM     85  C4  SGN B   5      21.156  21.332  22.3290  0.00  0.00     0.000 C
ATOM     86  C5  SGN B   5      20.361  20.990  23.5860  0.00  0.00     0.000 C
ATOM     87  O5  SGN B   5      19.318  21.969  23.7540  0.00  0.00     0.000 O
ATOM     88   O  SGN B   5      20.892  21.598  19.9440  0.00  0.00     0.000 O
ATOM     90  HD  SGN B   5      20.311  20.964  20.0410  0.00  0.00     0.000 HD
BRANCH 83 92
ATOM     90   N  SGN B   5      17.994  22.294  20.3530  0.00  0.00     0.000 N
ATOM     92  HD  SGN B   5      17.371  21.728  20.5570  0.00  0.00     0.000 HD
ATOM     92   S  SGN B   5      17.476  23.708  19.8180  0.00  0.00     0.000 S
ATOM     93   O  SGN B   5      16.452  23.377  18.8740  0.00  0.00     0.000 OA
ATOM     94   O  SGN B   5      17.156  24.466  20.9800  0.00  0.00     0.000 OA
ATOM     95   O  SGN B   5      18.690  24.348  19.1820  0.00  0.00     0.000 OA
ENDBRANCH 83 92
BRANCH 86 96
ATOM     96   C  SGN B   5      21.183  20.984  24.8590  0.00  0.00     0.000 C
ATOM     97   O  SGN B   5      20.952  19.784  25.6000  0.00  0.00     0.000 O
ATOM     98   S  SGN B   5      22.258  18.976  26.0610  0.00  0.00     0.000 S
ATOM     99   O  SGN B   5      21.715  17.965  26.9350  0.00  0.00     0.000 OA
ATOM    100   O  SGN B   5      22.884  18.474  24.8910  0.00  0.00     0.000 OA
ATOM    101   O  SGN B   5      23.052  19.946  26.7440  0.00  0.00     0.000 OA
ENDBRANCH 86 96
BRANCH 82 102
ATOM    102  O4  IDS B   6      17.679  20.807  22.6730  0.00  0.00     0.000 O
BRANCH 102 106
ATOM    103  C1  IDS B   6      14.690  18.750  22.9790  0.00  0.00     0.000 C
ATOM    104  C2  IDS B   6      14.642  20.104  22.2540  0.00  0.00     0.000 C
ATOM    105  C3  IDS B   6      15.306  21.252  22.9890  0.00  0.00     0.000 C
ATOM    106  C4  IDS B   6      16.611  20.846  23.6520  0.00  0.00     0.000 C
ATOM    107  C5  IDS B   6      16.444  19.484  24.3320  0.00  0.00     0.000 C
ATOM    108  O5  IDS B   6      16.010  18.480  23.4140  0.00  0.00     0.000 O
ATOM    109   O  IDS B   6      14.388  21.752  23.9480  0.00  0.00     0.000 O
ATOM    111  HD  IDS B   6      13.850  21.088  24.0870  0.00  0.00     0.000 HD
BRANCH 104 111
ATOM    111   O  IDS B   6      15.365  19.990  20.9780  0.00  0.00     0.000 O
ATOM    112   S  IDS B   6      14.542  20.215  19.6230  0.00  0.00     0.000 S
ATOM    113   O  IDS B   6      13.487  19.214  19.6650  0.00  0.00     0.000 OA
ATOM    114   O  IDS B   6      14.068  21.604  19.5930  0.00  0.00     0.000 OA
ATOM    115   O  IDS B   6      15.587  19.928  18.6640  0.00  0.00     0.000 OA
ENDBRANCH 104 111
BRANCH 107 116
ATOM    116   C  IDS B   6      17.768  19.070  24.9630  0.00  0.00     0.000 C
ATOM    117   O  IDS B   6      18.004  19.505  26.0610  0.00  0.00     0.000 OA
ATOM    118   O  IDS B   6      18.551  18.341  24.3750  0.00  0.00     0.000 OA
ENDBRANCH 107 116
BRANCH 103 119
ATOM    119  O4  SGN B   7      13.658  18.819  23.8580  0.00  0.00     0.000 O
BRANCH 119 123
ATOM    120  C1  SGN B   7      10.987  16.130  25.6270  0.00  0.00     0.000 C
ATOM    121  C2  SGN B   7      12.453  16.095  26.0990  0.00  0.00     0.000 C
ATOM    122  C3  SGN B   7      13.187  17.372  25.6700  0.00  0.00     0.000 C
ATOM    123  C4  SGN B   7      13.028  17.577  24.1730  0.00  0.00     0.000 C
ATOM    124  C5  SGN B   7      11.536  17.590  23.8030  0.00  0.00     0.000 C
ATOM    125  O5  SGN B   7      10.885  16.370  24.2250  0.00  0.00     0.000 O
ATOM    126   O  SGN B   7      14.567  17.262  26.0380  0.00  0.00     0.000 O
ATOM    128  HD  SGN B   7      13.763  16.944  26.0940  0.00  0.00     0.000 HD
BRANCH 121 130
ATOM    128   N  SGN B   7      12.623  14.751  26.6560  0.00  0.00     0.000 N
ATOM    130  HD  SGN B   7      13.457  14.916  26.8210  0.00  0.00     0.000 HD
ATOM    130   S  SGN B   7      12.785  14.490  28.2370  0.00  0.00     0.000 S
ATOM    131   O  SGN B   7      11.709  15.196  28.8440  0.00  0.00     0.000 OA
ATOM    132   O  SGN B   7      12.936  13.095  28.4460  0.00  0.00     0.000 OA
ATOM    133   O  SGN B   7      14.216  15.082  28.4740  0.00  0.00     0.000 OA
ENDBRANCH 121 130
BRANCH 124 134
ATOM    134   C  SGN B   7      11.276  17.672  22.3270  0.00  0.00     0.000 C
ATOM    135   O  SGN B   7      10.658  16.446  21.9020  0.00  0.00     0.000 O
ATOM    136   S  SGN B   7      10.165  16.391  20.4120  0.00  0.00     0.000 S
ATOM    137   O  SGN B   7       9.683  15.048  20.1930  0.00  0.00     0.000 OA
ATOM    138   O  SGN B   7      11.328  16.710  19.6160  0.00  0.00     0.000 OA
ATOM    139   O  SGN B   7       9.122  17.405  20.3900  0.00  0.00     0.000 OA
ENDBRANCH 124 134
BRANCH 120 140
ATOM    140  O4  IDS B   8      10.006  16.936  26.0490  0.00  0.00     0.000 O
BRANCH 140 144
ATOM    141  C1  IDS B   8       7.105  17.810  27.9940  0.00  0.00     0.000 C
ATOM    142  C2  IDS B   8       7.298  16.366  27.4500  0.00  0.00     0.000 C
ATOM    143  C3  IDS B   8       7.667  16.328  25.9550  0.00  0.00     0.000 C
ATOM    144  C4  IDS B   8       8.719  17.376  25.5980  0.00  0.00     0.000 C
ATOM    145  C5  IDS B   8       8.365  18.723  26.2460  0.00  0.00     0.000 C
ATOM    146  O5  IDS B   8       8.234  18.609  27.6610  0.00  0.00     0.000 O
BRANCH 142 147
ATOM    147   O  IDS B   8       8.400  15.699  28.1920  0.00  0.00     0.000 O
ATOM    148   S  IDS B   8       8.104  14.455  29.1890  0.00  0.00     0.000 S
ATOM    149   O  IDS B   8       6.686  14.446  29.4710  0.00  0.00     0.000 OA
ATOM    150   O  IDS B   8       8.541  13.272  28.4720  0.00  0.00     0.000 OA
ATOM    151   O  IDS B   8       8.890  14.722  30.3780  0.00  0.00     0.000 OA
ENDBRANCH 142 147
BRANCH 145 152
ATOM    152   C  IDS B   8       9.425  19.780  26.0100  0.00  0.00     0.000 C
ATOM    153   O  IDS B   8       9.504  20.322  24.9130  0.00  0.00     0.000 OA
ATOM    154   O  IDS B   8      10.174  20.095  26.9170  0.00  0.00     0.000 OA
ENDBRANCH 145 152
ENDBRANCH 140 144
ENDBRANCH 120 140
ENDBRANCH 119 123
ENDBRANCH 103 119
ENDBRANCH 102 106
ENDBRANCH 82 102
ENDBRANCH 81 85
ENDBRANCH 65 81
ENDBRANCH 64 68
ENDBRANCH 41 64
ENDBRANCH 40 44
ENDBRANCH 24 40
ENDBRANCH 23 27
ENDBRANCH 1 23
TORSDOF 31
ENDMDL
MODEL 7
REMARK VINA RESULT:      -8.4      2.228      4.315
ROOT
ATOM      1  C1  SGN B   1      29.207  12.728  13.2000  0.00  0.00     0.000 C
ATOM      2  C2  SGN B   1      29.915  11.850  14.2450  0.00  0.00     0.000 C
ATOM      3  C3  SGN B   1      29.676  12.390  15.6590  0.00  0.00     0.000 C
ATOM      4  C4  SGN B   1      30.116  13.848  15.7470  0.00  0.00     0.000 C
ATOM      5  C5  SGN B   1      29.486  14.629  14.5960  0.00  0.00     0.000 C
ATOM      6  O5  SGN B   1      29.824  14.000  13.3450  0.00  0.00     0.000 O
ATOM      7   O  SGN B   1      30.370  11.601  16.6190  0.00  0.00     0.000 O
ATOM      9  HD  SGN B   1      31.021  11.899  16.1320  0.00  0.00     0.000 HD
ATOM      9   O  SGN B   1      29.704  14.390  16.9880  0.00  0.00     0.000 O
ATOM     11  HD  SGN B   1      30.356  14.687  16.5010  0.00  0.00     0.000 HD
ENDROOT
BRANCH 2 13
ATOM     11   N  SGN B   1      30.564  10.759  13.4940  0.00  0.00     0.000 N
ATOM     13  HD  SGN B   1      29.746  10.985  13.3220  0.00  0.00     0.000 HD
ATOM     13   S  SGN B   1      29.730   9.538  12.8590  0.00  0.00     0.000 S
ATOM     14   O  SGN B   1      28.350   9.720  13.0910  0.00  0.00     0.000 OA
ATOM     15   O  SGN B   1      30.194   9.319  11.5300  0.00  0.00     0.000 OA
ATOM     16   O  SGN B   1      30.307   8.390  13.7430  0.00  0.00     0.000 OA
ENDBRANCH 2 13
BRANCH 5 17
ATOM     17   C  SGN B   1      29.936  16.067  14.5120  0.00  0.00     0.000 C
ATOM     18   O  SGN B   1      29.652  16.768  15.7390  0.00  0.00     0.000 O
ATOM     19   S  SGN B   1      28.997  18.219  15.5840  0.00  0.00     0.000 S
ATOM     20   O  SGN B   1      29.033  18.791  16.9130  0.00  0.00     0.000 OA
ATOM     21   O  SGN B   1      29.857  18.894  14.6400  0.00  0.00     0.000 OA
ATOM     22   O  SGN B   1      27.659  17.978  15.0920  0.00  0.00     0.000 OA
ENDBRANCH 5 17
BRANCH 1 23
ATOM     23  O4  IDS B   2      28.010  12.841  12.5560  0.00  0.00     0.000 O
BRANCH 23 27
ATOM     24  C1  IDS B   2      25.174  14.690  14.9570  0.00  0.00     0.000 C
ATOM     25  C2  IDS B   2      25.100  13.148  14.9040  0.00  0.00     0.000 C
ATOM     26  C3  IDS B   2      26.348  12.564  14.2470  0.00  0.00     0.000 C
ATOM     27  C4  IDS B   2      26.633  13.137  12.8660  0.00  0.00     0.000 C
ATOM     28  C5  IDS B   2      26.280  14.638  12.8360  0.00  0.00     0.000 C
ATOM     29  O5  IDS B   2      26.251  15.179  14.1480  0.00  0.00     0.000 O
ATOM     30   O  IDS B   2      26.188  11.158  14.1040  0.00  0.00     0.000 O
ATOM     32  HD  IDS B   2      25.693  10.937  13.4290  0.00  0.00     0.000 HD
BRANCH 25 32
ATOM     32   O  IDS B   2      24.980  12.545  16.2540  0.00  0.00     0.000 O
ATOM     33   S  IDS B   2      23.755  11.509  16.6400  0.00  0.00     0.000 S
ATOM     34   O  IDS B   2      23.832  11.309  18.0790  0.00  0.00     0.000 OA
ATOM     35   O  IDS B   2      22.482  12.099  16.2530  0.00  0.00     0.000 OA
ATOM     36   O  IDS B   2      24.037  10.287  15.9230  0.00  0.00     0.000 OA
ENDBRANCH 25 32
BRANCH 28 37
ATOM     37   C  IDS B   2      27.140  15.563  11.9490  0.00  0.00     0.000 C
ATOM     38   O  IDS B   2      27.322  15.112  10.8420  0.00  0.00     0.000 OA
ATOM     39   O  IDS B   2      27.581  16.700  12.2470  0.00  0.00     0.000 OA
ENDBRANCH 28 37
BRANCH 24 40
ATOM     40  O4  SUS B   3      24.132  15.397  15.4420  0.00  0.00     0.000 O
BRANCH 40 44
ATOM     41  C1  SUS B   3      24.054  19.011  17.5590  0.00  0.00     0.000 C
ATOM     42  C2  SUS B   3      24.419  19.078  16.0620  0.00  0.00     0.000 C
ATOM     43  C3  SUS B   3      23.938  17.805  15.3690  0.00  0.00     0.000 C
ATOM     44  C4  SUS B   3      24.520  16.601  16.0940  0.00  0.00     0.000 C
ATOM     45  C5  SUS B   3      24.017  16.598  17.5230  0.00  0.00     0.000 C
ATOM     46  O5  SUS B   3      24.496  17.794  18.1710  0.00  0.00     0.000 O
BRANCH 42 49
ATOM     47   N  SUS B   3      25.352  19.816  15.1940  0.00  0.00     0.000 N
ATOM     49  HD  SUS B   3      26.196  19.707  15.3530  0.00  0.00     0.000 HD
ATOM     49   S  SUS B   3      25.051  21.389  15.1590  0.00  0.00     0.000 S
ATOM     50   O  SUS B   3      25.101  21.916  16.4650  0.00  0.00     0.000 OA
ATOM     51   O  SUS B   3      26.313  21.795  14.3560  0.00  0.00     0.000 OA
ATOM     52   O  SUS B   3      23.884  21.624  14.4040  0.00  0.00     0.000 OA
ENDBRANCH 42 49
BRANCH 43 53
ATOM     53   O  SUS B   3      24.422  17.834  13.9760  0.00  0.00     0.000 O
ATOM     54   S  SUS B   3      23.297  17.684  12.7870  0.00  0.00     0.000 S
ATOM     55   O  SUS B   3      22.524  18.918  12.7590  0.00  0.00     0.000 OA
ATOM     56   O  SUS B   3      24.081  17.455  11.5870  0.00  0.00     0.000 OA
ATOM     57   O  SUS B   3      22.456  16.540  13.1550  0.00  0.00     0.000 OA
ENDBRANCH 43 53
BRANCH 45 58
ATOM     58   C  SUS B   3      24.474  15.372  18.2820  0.00  0.00     0.000 C
ATOM     59   S  SUS B   3      24.496  14.322  20.6240  0.00  0.00     0.000 S
ATOM     60   O  SUS B   3      23.945  15.414  19.6180  0.00  0.00     0.000 O
ATOM     61   O  SUS B   3      25.806  14.800  21.0220  0.00  0.00     0.000 OA
ATOM     62   O  SUS B   3      23.525  14.417  21.6800  0.00  0.00     0.000 OA
ATOM     63   O  SUS B   3      24.489  13.101  19.8990  0.00  0.00     0.000 OA
ENDBRANCH 45 58
BRANCH 41 64
ATOM     64  O4  IDS B   4      22.745  19.330  17.8240  0.00  0.00     0.000 O
BRANCH 64 68
ATOM     65  C1  IDS B   4      20.478  21.339  19.8490  0.00  0.00     0.000 C
ATOM     66  C2  IDS B   4      21.964  21.709  19.7570  0.00  0.00     0.000 C
ATOM     67  C3  IDS B   4      22.914  20.536  19.9330  0.00  0.00     0.000 C
ATOM     68  C4  IDS B   4      22.434  19.278  19.2340  0.00  0.00     0.000 C
ATOM     69  C5  IDS B   4      20.936  19.113  19.5240  0.00  0.00     0.000 C
ATOM     70  O5  IDS B   4      20.228  20.237  18.9960  0.00  0.00     0.000 O
ATOM     71   O  IDS B   4      23.032  20.297  21.3200  0.00  0.00     0.000 O
ATOM     73  HD  IDS B   4      22.835  20.759  20.6150  0.00  0.00     0.000 HD
BRANCH 66 73
ATOM     73   O  IDS B   4      22.238  22.236  18.4130  0.00  0.00     0.000 O
ATOM     74   S  IDS B   4      22.159  23.837  18.1960  0.00  0.00     0.000 S
ATOM     75   O  IDS B   4      20.834  24.242  18.6160  0.00  0.00     0.000 OA
ATOM     76   O  IDS B   4      22.386  23.955  16.7780  0.00  0.00     0.000 OA
ATOM     77   O  IDS B   4      23.212  24.390  19.0140  0.00  0.00     0.000 OA
ENDBRANCH 66 73
BRANCH 69 78
ATOM     78   C  IDS B   4      20.352  17.780  19.0750  0.00  0.00     0.000 C
ATOM     79   O  IDS B   4      21.119  16.849  18.8360  0.00  0.00     0.000 OA
ATOM     80   O  IDS B   4      19.114  17.645  19.0670  0.00  0.00     0.000 OA
ENDBRANCH 69 78
BRANCH 65 81
ATOM     81  O4  SGN B   5      20.127  21.195  21.1570  0.00  0.00     0.000 O
BRANCH 81 85
ATOM     82  C1  SGN B   5      16.716  21.191  23.6060  0.00  0.00     0.000 C
ATOM     83  C2  SGN B   5      16.516  20.816  22.1300  0.00  0.00     0.000 C
ATOM     84  C3  SGN B   5      17.864  20.417  21.5140  0.00  0.00     0.000 C
ATOM     85  C4  SGN B   5      18.859  21.547  21.7140  0.00  0.00     0.000 C
ATOM     86  C5  SGN B   5      18.990  21.811  23.2120  0.00  0.00     0.000 C
ATOM     87  O5  SGN B   5      17.702  22.198  23.7270  0.00  0.00     0.000 O
ATOM     88   O  SGN B   5      17.698  20.126  20.1440  0.00  0.00     0.000 O
ATOM     90  HD  SGN B   5      17.774  19.539  20.7760  0.00  0.00     0.000 HD
BRANCH 83 92
ATOM     90   N  SGN B   5      15.175  20.560  22.6930  0.00  0.00     0.000 N
ATOM     92  HD  SGN B   5      14.980  21.139  23.3070  0.00  0.00     0.000 HD
ATOM     92   S  SGN B   5      13.987  20.220  21.6800  0.00  0.00     0.000 S
ATOM     93   O  SGN B   5      12.844  20.036  22.5230  0.00  0.00     0.000 OA
ATOM     94   O  SGN B   5      13.997  21.262  20.7110  0.00  0.00     0.000 OA
ATOM     95   O  SGN B   5      14.426  18.951  20.9840  0.00  0.00     0.000 OA
ENDBRANCH 83 92
BRANCH 86 96
ATOM     96   C  SGN B   5      19.967  22.914  23.5640  0.00  0.00     0.000 C
ATOM     97   O  SGN B   5      20.752  22.545  24.7010  0.00  0.00     0.000 O
ATOM     98   S  SGN B   5      22.340  22.699  24.5430  0.00  0.00     0.000 S
ATOM     99   O  SGN B   5      22.818  22.457  25.8830  0.00  0.00     0.000 OA
ATOM    100   O  SGN B   5      22.767  21.748  23.5810  0.00  0.00     0.000 OA
ATOM    101   O  SGN B   5      22.525  24.047  24.1120  0.00  0.00     0.000 OA
ENDBRANCH 86 96
BRANCH 82 102
ATOM    102  O4  IDS B   6      17.036  20.117  24.3820  0.00  0.00     0.000 O
BRANCH 102 106
ATOM    103  C1  IDS B   6      15.934  17.928  27.0740  0.00  0.00     0.000 C
ATOM    104  C2  IDS B   6      14.918  18.741  26.2570  0.00  0.00     0.000 C
ATOM    105  C3  IDS B   6      15.274  20.202  26.0600  0.00  0.00     0.000 C
ATOM    106  C4  IDS B   6      16.750  20.412  25.7720  0.00  0.00     0.000 C
ATOM    107  C5  IDS B   6      17.589  19.529  26.7010  0.00  0.00     0.000 C
ATOM    108  O5  IDS B   6      17.241  18.149  26.5810  0.00  0.00     0.000 O
ATOM    109   O  IDS B   6      14.881  20.913  27.2230  0.00  0.00     0.000 O
ATOM    111  HD  IDS B   6      14.857  20.306  27.8400  0.00  0.00     0.000 HD
BRANCH 104 111
ATOM    111   O  IDS B   6      14.831  18.177  24.9010  0.00  0.00     0.000 O
ATOM    112   S  IDS B   6      13.703  17.078  24.6140  0.00  0.00     0.000 S
ATOM    113   O  IDS B   6      13.984  16.009  25.5600  0.00  0.00     0.000 OA
ATOM    114   O  IDS B   6      12.388  17.709  24.7770  0.00  0.00     0.000 OA
ATOM    115   O  IDS B   6      14.036  16.753  23.2440  0.00  0.00     0.000 OA
ENDBRANCH 104 111
BRANCH 107 116
ATOM    116   C  IDS B   6      19.066  19.720  26.3800  0.00  0.00     0.000 C
ATOM    117   O  IDS B   6      19.543  18.977  25.5600  0.00  0.00     0.000 OA
ATOM    118   O  IDS B   6      19.731  20.580  26.9350  0.00  0.00     0.000 OA
ENDBRANCH 107 116
BRANCH 103 119
ATOM    119  O4  SGN B   7      15.608  18.208  28.3620  0.00  0.00     0.000 O
BRANCH 119 123
ATOM    120  C1  SGN B   7      15.747  16.174  32.0140  0.00  0.00     0.000 C
ATOM    121  C2  SGN B   7      17.012  16.934  31.5720  0.00  0.00     0.000 C
ATOM    122  C3  SGN B   7      16.677  17.931  30.4550  0.00  0.00     0.000 C
ATOM    123  C4  SGN B   7      15.964  17.212  29.3220  0.00  0.00     0.000 C
ATOM    124  C5  SGN B   7      14.725  16.482  29.8650  0.00  0.00     0.000 C
ATOM    125  O5  SGN B   7      15.086  15.554  30.9120  0.00  0.00     0.000 O
ATOM    126   O  SGN B   7      17.889  18.546  30.0010  0.00  0.00     0.000 O
ATOM    128  HD  SGN B   7      17.492  18.047  30.5870  0.00  0.00     0.000 HD
BRANCH 121 130
ATOM    128   N  SGN B   7      18.107  16.286  32.2980  0.00  0.00     0.000 N
ATOM    130  HD  SGN B   7      18.680  16.809  31.9150  0.00  0.00     0.000 HD
ATOM    130   S  SGN B   7      18.876  17.005  33.5150  0.00  0.00     0.000 S
ATOM    131   O  SGN B   7      17.848  17.467  34.3850  0.00  0.00     0.000 OA
ATOM    132   O  SGN B   7      19.878  16.123  33.9940  0.00  0.00     0.000 OA
ATOM    133   O  SGN B   7      19.664  18.112  32.7350  0.00  0.00     0.000 OA
ENDBRANCH 121 130
BRANCH 124 134
ATOM    134   C  SGN B   7      14.015  15.646  28.8400  0.00  0.00     0.000 C
ATOM    135   O  SGN B   7      12.711  15.313  29.3450  0.00  0.00     0.000 O
ATOM    136   S  SGN B   7      11.747  14.566  28.3540  0.00  0.00     0.000 S
ATOM    137   O  SGN B   7      10.557  14.249  29.1070  0.00  0.00     0.000 OA
ATOM    138   O  SGN B   7      12.476  13.392  27.9310  0.00  0.00     0.000 OA
ATOM    139   O  SGN B   7      11.542  15.557  27.3100  0.00  0.00     0.000 OA
ENDBRANCH 124 134
BRANCH 120 140
ATOM    140  O4  IDS B   8      14.677  16.659  32.6540  0.00  0.00     0.000 O
BRANCH 140 144
ATOM    141  C1  IDS B   8      12.096  19.028  33.4820  0.00  0.00     0.000 C
ATOM    142  C2  IDS B   8      13.528  19.505  33.1070  0.00  0.00     0.000 C
ATOM    143  C3  IDS B   8      14.634  18.750  33.8680  0.00  0.00     0.000 C
ATOM    144  C4  IDS B   8      14.368  17.247  33.9230  0.00  0.00     0.000 C
ATOM    145  C5  IDS B   8      12.898  16.982  34.2840  0.00  0.00     0.000 C
ATOM    146  O5  IDS B   8      12.008  17.613  33.3670  0.00  0.00     0.000 O
BRANCH 142 147
ATOM    147   O  IDS B   8      13.761  19.280  31.6560  0.00  0.00     0.000 O
ATOM    148   S  IDS B   8      13.626  20.495  30.5900  0.00  0.00     0.000 S
ATOM    149   O  IDS B   8      12.908  21.569  31.2380  0.00  0.00     0.000 OA
ATOM    150   O  IDS B   8      14.988  20.859  30.2440  0.00  0.00     0.000 OA
ATOM    151   O  IDS B   8      12.884  19.942  29.4730  0.00  0.00     0.000 OA
ENDBRANCH 142 147
BRANCH 145 152
ATOM    152   C  IDS B   8      12.548  15.508  34.2570  0.00  0.00     0.000 C
ATOM    153   O  IDS B   8      11.788  15.083  33.3940  0.00  0.00     0.000 OA
ATOM    154   O  IDS B   8      13.040  14.757  35.0810  0.00  0.00     0.000 OA
ENDBRANCH 145 152
ENDBRANCH 140 144
ENDBRANCH 120 140
ENDBRANCH 119 123
ENDBRANCH 103 119
ENDBRANCH 102 106
ENDBRANCH 82 102
ENDBRANCH 81 85
ENDBRANCH 65 81
ENDBRANCH 64 68
ENDBRANCH 41 64
ENDBRANCH 40 44
ENDBRANCH 24 40
ENDBRANCH 23 27
ENDBRANCH 1 23
TORSDOF 31
ENDMDL
MODEL 8
REMARK VINA RESULT:      -8.1      1.972      3.727
ROOT
ATOM      1  C1  SGN B   1      28.629  11.222  14.0430  0.00  0.00     0.000 C
ATOM      2  C2  SGN B   1      29.074   9.752  14.1160  0.00  0.00     0.000 C
ATOM      3  C3  SGN B   1      28.005   8.832  13.5160  0.00  0.00     0.000 C
ATOM      4  C4  SGN B   1      26.666   9.058  14.2100  0.00  0.00     0.000 C
ATOM      5  C5  SGN B   1      26.358  10.554  14.2240  0.00  0.00     0.000 C
ATOM      6  O5  SGN B   1      27.451  11.265  14.8360  0.00  0.00     0.000 O
ATOM      7   O  SGN B   1      28.400   7.469  13.6260  0.00  0.00     0.000 O
ATOM      9  HD  SGN B   1      28.365   7.710  14.4570  0.00  0.00     0.000 HD
ATOM      9   O  SGN B   1      25.651   8.357  13.5150  0.00  0.00     0.000 O
ATOM     11  HD  SGN B   1      25.617   8.598  14.3460  0.00  0.00     0.000 HD
ENDROOT
BRANCH 2 13
ATOM     11   N  SGN B   1      30.434   9.637  14.6750  0.00  0.00     0.000 N
ATOM     13  HD  SGN B   1      30.225  10.301  14.1600  0.00  0.00     0.000 HD
ATOM     13   S  SGN B   1      31.725  10.237  13.9250  0.00  0.00     0.000 S
ATOM     14   O  SGN B   1      31.335  10.897  12.7410  0.00  0.00     0.000 OA
ATOM     15   O  SGN B   1      32.521  10.928  14.8830  0.00  0.00     0.000 OA
ATOM     16   O  SGN B   1      32.447   8.890  13.6130  0.00  0.00     0.000 OA
ENDBRANCH 2 13
BRANCH 5 17
ATOM     17   C  SGN B   1      25.105  10.915  14.9830  0.00  0.00     0.000 C
ATOM     18   O  SGN B   1      25.053  10.226  16.2480  0.00  0.00     0.000 O
ATOM     19   S  SGN B   1      23.649   9.560  16.6260  0.00  0.00     0.000 S
ATOM     20   O  SGN B   1      23.787   9.151  18.0080  0.00  0.00     0.000 OA
ATOM     21   O  SGN B   1      22.690  10.624  16.4310  0.00  0.00     0.000 OA
ATOM     22   O  SGN B   1      23.495   8.454  15.7070  0.00  0.00     0.000 OA
ENDBRANCH 5 17
BRANCH 1 23
ATOM     23  O4  IDS B   2      28.694  12.302  13.2130  0.00  0.00     0.000 O
BRANCH 23 27
ATOM     24  C1  IDS B   2      27.368  15.667  15.2510  0.00  0.00     0.000 C
ATOM     25  C2  IDS B   2      26.572  15.301  13.9780  0.00  0.00     0.000 C
ATOM     26  C3  IDS B   2      26.945  13.906  13.4830  0.00  0.00     0.000 C
ATOM     27  C4  IDS B   2      28.440  13.722  13.2550  0.00  0.00     0.000 C
ATOM     28  C5  IDS B   2      29.235  14.480  14.3380  0.00  0.00     0.000 C
ATOM     29  O5  IDS B   2      28.428  14.729  15.4790  0.00  0.00     0.000 O
ATOM     30   O  IDS B   2      26.288  13.657  12.2460  0.00  0.00     0.000 O
ATOM     32  HD  IDS B   2      26.678  14.033  11.5710  0.00  0.00     0.000 HD
BRANCH 25 32
ATOM     32   O  IDS B   2      25.107  15.317  14.2080  0.00  0.00     0.000 O
ATOM     33   S  IDS B   2      24.119  16.407  13.4600  0.00  0.00     0.000 S
ATOM     34   O  IDS B   2      22.815  16.271  14.0890  0.00  0.00     0.000 OA
ATOM     35   O  IDS B   2      24.657  17.748  13.6340  0.00  0.00     0.000 OA
ATOM     36   O  IDS B   2      24.077  16.006  12.0720  0.00  0.00     0.000 OA
ENDBRANCH 25 32
BRANCH 28 37
ATOM     37   C  IDS B   2      30.570  13.870  14.8110  0.00  0.00     0.000 C
ATOM     38   O  IDS B   2      30.471  13.289  15.8670  0.00  0.00     0.000 OA
ATOM     39   O  IDS B   2      31.663  13.873  14.1930  0.00  0.00     0.000 OA
ENDBRANCH 28 37
BRANCH 24 40
ATOM     40  O4  SUS B   3      27.227  16.890  15.8030  0.00  0.00     0.000 O
BRANCH 40 44
ATOM     41  C1  SUS B   3      26.790  17.746  19.8800  0.00  0.00     0.000 C
ATOM     42  C2  SUS B   3      28.100  18.193  19.2030  0.00  0.00     0.000 C
ATOM     43  C3  SUS B   3      27.893  18.245  17.6910  0.00  0.00     0.000 C
ATOM     44  C4  SUS B   3      27.383  16.892  17.2180  0.00  0.00     0.000 C
ATOM     45  C5  SUS B   3      26.052  16.610  17.8830  0.00  0.00     0.000 C
ATOM     46  O5  SUS B   3      26.266  16.542  19.3080  0.00  0.00     0.000 O
BRANCH 42 49
ATOM     47   N  SUS B   3      29.539  18.445  19.3930  0.00  0.00     0.000 N
ATOM     49  HD  SUS B   3      30.059  17.752  19.3760  0.00  0.00     0.000 HD
ATOM     49   S  SUS B   3      29.850  19.268  20.7320  0.00  0.00     0.000 S
ATOM     50   O  SUS B   3      29.338  18.578  21.8490  0.00  0.00     0.000 OA
ATOM     51   O  SUS B   3      31.394  19.137  20.6690  0.00  0.00     0.000 OA
ATOM     52   O  SUS B   3      29.458  20.610  20.5570  0.00  0.00     0.000 OA
ENDBRANCH 42 49
BRANCH 43 53
ATOM     53   O  SUS B   3      29.196  18.538  17.0620  0.00  0.00     0.000 O
ATOM     54   S  SUS B   3      29.348  19.980  16.2900  0.00  0.00     0.000 S
ATOM     55   O  SUS B   3      29.377  21.020  17.3090  0.00  0.00     0.000 OA
ATOM     56   O  SUS B   3      30.589  19.853  15.5470  0.00  0.00     0.000 OA
ATOM     57   O  SUS B   3      28.170  20.115  15.4270  0.00  0.00     0.000 OA
ENDBRANCH 43 53
BRANCH 45 58
ATOM     58   C  SUS B   3      25.431  15.323  17.3860  0.00  0.00     0.000 C
ATOM     59   S  SUS B   3      23.306  13.894  17.5530  0.00  0.00     0.000 S
ATOM     60   O  SUS B   3      24.055  15.267  17.7980  0.00  0.00     0.000 O
ATOM     61   O  SUS B   3      23.763  13.018  18.6150  0.00  0.00     0.000 OA
ATOM     62   O  SUS B   3      21.937  14.302  17.7190  0.00  0.00     0.000 OA
ATOM     63   O  SUS B   3      23.666  13.494  16.2380  0.00  0.00     0.000 OA
ENDBRANCH 45 58
BRANCH 41 64
ATOM     64  O4  IDS B   4      25.865  18.752  20.0160  0.00  0.00     0.000 O
BRANCH 64 68
ATOM     65  C1  IDS B   4      23.819  20.500  22.4730  0.00  0.00     0.000 C
ATOM     66  C2  IDS B   4      24.950  19.570  22.9310  0.00  0.00     0.000 C
ATOM     67  C3  IDS B   4      24.983  18.226  22.2240  0.00  0.00     0.000 C
ATOM     68  C4  IDS B   4      24.687  18.332  20.7390  0.00  0.00     0.000 C
ATOM     69  C5  IDS B   4      23.490  19.276  20.5580  0.00  0.00     0.000 C
ATOM     70  O5  IDS B   4      23.831  20.571  21.0580  0.00  0.00     0.000 O
ATOM     71   O  IDS B   4      24.018  17.402  22.8450  0.00  0.00     0.000 O
ATOM     73  HD  IDS B   4      24.551  18.082  22.7830  0.00  0.00     0.000 HD
BRANCH 66 73
ATOM     73   O  IDS B   4      26.239  20.206  22.6220  0.00  0.00     0.000 O
ATOM     74   S  IDS B   4      27.065  20.875  23.8420  0.00  0.00     0.000 S
ATOM     75   O  IDS B   4      26.180  21.842  24.4540  0.00  0.00     0.000 OA
ATOM     76   O  IDS B   4      28.188  21.460  23.1530  0.00  0.00     0.000 OA
ATOM     77   O  IDS B   4      27.411  19.782  24.7190  0.00  0.00     0.000 OA
ENDBRANCH 66 73
BRANCH 69 78
ATOM     78   C  IDS B   4      22.930  19.316  19.1420  0.00  0.00     0.000 C
ATOM     79   O  IDS B   4      23.238  18.419  18.3590  0.00  0.00     0.000 OA
ATOM     80   O  IDS B   4      22.097  20.195  18.8570  0.00  0.00     0.000 OA
ENDBRANCH 69 78
BRANCH 65 81
ATOM     81  O4  SGN B   5      22.651  20.114  23.0570  0.00  0.00     0.000 O
BRANCH 81 85
ATOM     82  C1  SGN B   5      19.107  21.563  24.7830  0.00  0.00     0.000 C
ATOM     83  C2  SGN B   5      19.158  21.490  23.2490  0.00  0.00     0.000 C
ATOM     84  C3  SGN B   5      20.281  20.537  22.8170  0.00  0.00     0.000 C
ATOM     85  C4  SGN B   5      21.590  20.993  23.4370  0.00  0.00     0.000 C
ATOM     86  C5  SGN B   5      21.424  21.002  24.9550  0.00  0.00     0.000 C
ATOM     87  O5  SGN B   5      20.374  21.926  25.2990  0.00  0.00     0.000 O
ATOM     88   O  SGN B   5      20.371  20.509  21.4090  0.00  0.00     0.000 O
ATOM     90  HD  SGN B   5      19.997  19.902  21.9010  0.00  0.00     0.000 HD
BRANCH 83 92
ATOM     90   N  SGN B   5      17.689  21.347  23.2200  0.00  0.00     0.000 N
ATOM     92  HD  SGN B   5      17.367  21.287  24.0220  0.00  0.00     0.000 HD
ATOM     92   S  SGN B   5      16.861  22.285  22.2260  0.00  0.00     0.000 S
ATOM     93   O  SGN B   5      15.496  21.911  22.4400  0.00  0.00     0.000 OA
ATOM     94   O  SGN B   5      17.288  23.614  22.5050  0.00  0.00     0.000 OA
ATOM     95   O  SGN B   5      17.370  21.927  20.8470  0.00  0.00     0.000 OA
ENDBRANCH 83 92
BRANCH 86 96
ATOM     96   C  SGN B   5      22.665  21.428  25.7120  0.00  0.00     0.000 C
ATOM     97   O  SGN B   5      22.594  21.000  27.0740  0.00  0.00     0.000 O
ATOM     98   S  SGN B   5      23.869  20.204  27.6320  0.00  0.00     0.000 S
ATOM     99   O  SGN B   5      23.586  20.098  29.0430  0.00  0.00     0.000 OA
ATOM    100   O  SGN B   5      23.931  18.964  26.9450  0.00  0.00     0.000 OA
ATOM    101   O  SGN B   5      24.975  21.057  27.3400  0.00  0.00     0.000 OA
ENDBRANCH 86 96
BRANCH 82 102
ATOM    102  O4  IDS B   6      18.679  20.400  25.3490  0.00  0.00     0.000 O
BRANCH 102 106
ATOM    103  C1  IDS B   6      16.248  18.551  27.3310  0.00  0.00     0.000 C
ATOM    104  C2  IDS B   6      15.812  19.744  26.4660  0.00  0.00     0.000 C
ATOM    105  C3  IDS B   6      16.673  20.984  26.6010  0.00  0.00     0.000 C
ATOM    106  C4  IDS B   6      18.156  20.664  26.6760  0.00  0.00     0.000 C
ATOM    107  C5  IDS B   6      18.379  19.462  27.5980  0.00  0.00     0.000 C
ATOM    108  O5  IDS B   6      17.635  18.319  27.1740  0.00  0.00     0.000 O
ATOM    109   O  IDS B   6      16.252  21.690  27.7560  0.00  0.00     0.000 O
ATOM    111  HD  IDS B   6      15.867  21.085  28.2420  0.00  0.00     0.000 HD
BRANCH 104 111
ATOM    111   O  IDS B   6      15.898  19.364  25.0470  0.00  0.00     0.000 O
ATOM    112   S  IDS B   6      14.551  18.921  24.3040  0.00  0.00     0.000 S
ATOM    113   O  IDS B   6      14.064  17.786  25.0730  0.00  0.00     0.000 OA
ATOM    114   O  IDS B   6      13.641  20.071  24.2660  0.00  0.00     0.000 OA
ATOM    115   O  IDS B   6      15.103  18.563  23.0140  0.00  0.00     0.000 OA
ENDBRANCH 104 111
BRANCH 107 116
ATOM    116   C  IDS B   6      19.864  19.126  27.6380  0.00  0.00     0.000 C
ATOM    117   O  IDS B   6      20.483  19.517  28.5950  0.00  0.00     0.000 OA
ATOM    118   O  IDS B   6      20.398  18.499  26.7360  0.00  0.00     0.000 OA
ENDBRANCH 107 116
BRANCH 103 119
ATOM    119  O4  SGN B   7      15.710  18.823  28.5480  0.00  0.00     0.000 O
BRANCH 119 123
ATOM    120  C1  SGN B   7      14.728  16.654  31.9860  0.00  0.00     0.000 C
ATOM    121  C2  SGN B   7      16.212  16.995  31.7570  0.00  0.00     0.000 C
ATOM    122  C3  SGN B   7      16.354  18.106  30.7090  0.00  0.00     0.000 C
ATOM    123  C4  SGN B   7      15.611  17.715  29.4430  0.00  0.00     0.000 C
ATOM    124  C5  SGN B   7      14.146  17.389  29.7770  0.00  0.00     0.000 C
ATOM    125  O5  SGN B   7      14.060  16.338  30.7660  0.00  0.00     0.000 O
ATOM    126   O  SGN B   7      17.745  18.327  30.4500  0.00  0.00     0.000 O
ATOM    128  HD  SGN B   7      17.139  17.949  30.9390  0.00  0.00     0.000 HD
BRANCH 121 130
ATOM    128   N  SGN B   7      16.822  15.978  32.6190  0.00  0.00     0.000 N
ATOM    130  HD  SGN B   7      17.601  16.152  32.2850  0.00  0.00     0.000 HD
ATOM    130   S  SGN B   7      17.732  16.362  33.8900  0.00  0.00     0.000 S
ATOM    131   O  SGN B   7      16.963  17.306  34.6270  0.00  0.00     0.000 OA
ATOM    132   O  SGN B   7      18.172  15.161  34.5030  0.00  0.00     0.000 OA
ATOM    133   O  SGN B   7      19.002  16.925  33.1670  0.00  0.00     0.000 OA
ENDBRANCH 121 130
BRANCH 124 134
ATOM    134   C  SGN B   7      13.355  16.879  28.6070  0.00  0.00     0.000 C
ATOM    135   O  SGN B   7      13.255  15.449  28.7110  0.00  0.00     0.000 O
ATOM    136   S  SGN B   7      12.332  14.734  27.6600  0.00  0.00     0.000 S
ATOM    137   O  SGN B   7      12.472  13.316  27.8940  0.00  0.00     0.000 OA
ATOM    138   O  SGN B   7      12.838  15.146  26.3700  0.00  0.00     0.000 OA
ATOM    139   O  SGN B   7      11.017  15.261  27.9880  0.00  0.00     0.000 OA
ENDBRANCH 124 134
BRANCH 120 140
ATOM    140  O4  IDS B   8      13.785  17.419  32.5480  0.00  0.00     0.000 O
BRANCH 140 144
ATOM    141  C1  IDS B   8      11.913  17.830  35.5960  0.00  0.00     0.000 C
ATOM    142  C2  IDS B   8      12.321  16.416  35.0920  0.00  0.00     0.000 C
ATOM    143  C3  IDS B   8      11.992  16.187  33.6060  0.00  0.00     0.000 C
ATOM    144  C4  IDS B   8      12.366  17.392  32.7440  0.00  0.00     0.000 C
ATOM    145  C5  IDS B   8      11.902  18.691  33.4200  0.00  0.00     0.000 C
ATOM    146  O5  IDS B   8      12.445  18.826  34.7310  0.00  0.00     0.000 O
BRANCH 142 147
ATOM    147   O  IDS B   8      13.788  16.237  35.2510  0.00  0.00     0.000 O
ATOM    148   S  IDS B   8      14.414  14.803  35.6780  0.00  0.00     0.000 S
ATOM    149   O  IDS B   8      13.339  13.997  36.2110  0.00  0.00     0.000 OA
ATOM    150   O  IDS B   8      14.980  14.250  34.4620  0.00  0.00     0.000 OA
ATOM    151   O  IDS B   8      15.413  15.107  36.6850  0.00  0.00     0.000 OA
ENDBRANCH 142 147
BRANCH 145 152
ATOM    152   C  IDS B   8      12.331  19.930  32.6610  0.00  0.00     0.000 C
ATOM    153   O  IDS B   8      11.873  20.144  31.5440  0.00  0.00     0.000 OA
ATOM    154   O  IDS B   8      13.112  20.711  33.1750  0.00  0.00     0.000 OA
ENDBRANCH 145 152
ENDBRANCH 140 144
ENDBRANCH 120 140
ENDBRANCH 119 123
ENDBRANCH 103 119
ENDBRANCH 102 106
ENDBRANCH 82 102
ENDBRANCH 81 85
ENDBRANCH 65 81
ENDBRANCH 64 68
ENDBRANCH 41 64
ENDBRANCH 40 44
ENDBRANCH 24 40
ENDBRANCH 23 27
ENDBRANCH 1 23
TORSDOF 31
ENDMDL
MODEL 9
REMARK VINA RESULT:      -7.9      2.527      4.078
ROOT
ATOM      1  C1  SGN B   1      29.689  11.176  15.5790  0.00  0.00     0.000 C
ATOM      2  C2  SGN B   1      31.156  10.726  15.4860  0.00  0.00     0.000 C
ATOM      3  C3  SGN B   1      31.565  10.504  14.0260  0.00  0.00     0.000 C
ATOM      4  C4  SGN B   1      30.620   9.509  13.3610  0.00  0.00     0.000 C
ATOM      5  C5  SGN B   1      29.178   9.943  13.6140  0.00  0.00     0.000 C
ATOM      6  O5  SGN B   1      28.960  10.085  15.0310  0.00  0.00     0.000 O
ATOM      7   O  SGN B   1      32.909  10.045  13.9470  0.00  0.00     0.000 O
ATOM      9  HD  SGN B   1      32.534   9.414  14.4060  0.00  0.00     0.000 HD
ATOM      9   O  SGN B   1      30.881   9.470  11.9700  0.00  0.00     0.000 O
ATOM     11  HD  SGN B   1      30.507   8.838  12.4290  0.00  0.00     0.000 HD
ENDROOT
BRANCH 2 13
ATOM     11   N  SGN B   1      31.834  11.884  16.0990  0.00  0.00     0.000 N
ATOM     13  HD  SGN B   1      31.833  11.114  16.4960  0.00  0.00     0.000 HD
ATOM     13   S  SGN B   1      32.004  12.037  17.6920  0.00  0.00     0.000 S
ATOM     14   O  SGN B   1      31.470  10.908  18.3470  0.00  0.00     0.000 OA
ATOM     15   O  SGN B   1      33.344  12.436  17.9650  0.00  0.00     0.000 OA
ATOM     16   O  SGN B   1      31.100  13.292  17.8930  0.00  0.00     0.000 OA
ENDBRANCH 2 13
BRANCH 5 17
ATOM     17   C  SGN B   1      28.145   8.974  13.0950  0.00  0.00     0.000 C
ATOM     18   O  SGN B   1      26.825   9.549  13.1530  0.00  0.00     0.000 O
ATOM     19   S  SGN B   1      25.672   8.605  13.7330  0.00  0.00     0.000 S
ATOM     20   O  SGN B   1      24.438   9.313  13.4680  0.00  0.00     0.000 OA
ATOM     21   O  SGN B   1      25.809   7.379  12.9810  0.00  0.00     0.000 OA
ATOM     22   O  SGN B   1      25.971   8.467  15.1420  0.00  0.00     0.000 OA
ENDBRANCH 5 17
BRANCH 1 23
ATOM     23  O4  IDS B   2      28.933  12.311  15.5820  0.00  0.00     0.000 O
BRANCH 23 27
ATOM     24  C1  IDS B   2      25.562  14.708  15.9300  0.00  0.00     0.000 C
ATOM     25  C2  IDS B   2      25.300  13.186  15.9240  0.00  0.00     0.000 C
ATOM     26  C3  IDS B   2      26.602  12.408  16.0930  0.00  0.00     0.000 C
ATOM     27  C4  IDS B   2      27.667  12.774  15.0680  0.00  0.00     0.000 C
ATOM     28  C5  IDS B   2      27.614  14.287  14.7720  0.00  0.00     0.000 C
ATOM     29  O5  IDS B   2      26.965  14.987  15.8220  0.00  0.00     0.000 O
ATOM     30   O  IDS B   2      26.337  11.016  15.9580  0.00  0.00     0.000 O
ATOM     32  HD  IDS B   2      26.257  10.762  15.1340  0.00  0.00     0.000 HD
BRANCH 25 32
ATOM     32   O  IDS B   2      24.385  12.770  17.0150  0.00  0.00     0.000 O
ATOM     33   S  IDS B   2      23.044  11.853  16.7250  0.00  0.00     0.000 S
ATOM     34   O  IDS B   2      22.287  11.839  17.9670  0.00  0.00     0.000 OA
ATOM     35   O  IDS B   2      22.275  12.449  15.6410  0.00  0.00     0.000 OA
ATOM     36   O  IDS B   2      23.536  10.537  16.3930  0.00  0.00     0.000 OA
ENDBRANCH 25 32
BRANCH 28 37
ATOM     37   C  IDS B   2      28.942  15.006  14.4580  0.00  0.00     0.000 C
ATOM     38   O  IDS B   2      29.306  14.839  13.3180  0.00  0.00     0.000 OA
ATOM     39   O  IDS B   2      29.595  15.755  15.2250  0.00  0.00     0.000 OA
ENDBRANCH 28 37
BRANCH 24 40
ATOM     40  O4  SUS B   3      24.542  15.567  15.7250  0.00  0.00     0.000 O
BRANCH 40 44
ATOM     41  C1  SUS B   3      23.853  19.146  17.7900  0.00  0.00     0.000 C
ATOM     42  C2  SUS B   3      24.239  19.254  16.3010  0.00  0.00     0.000 C
ATOM     43  C3  SUS B   3      23.979  17.915  15.6150  0.00  0.00     0.000 C
ATOM     44  C4  SUS B   3      24.723  16.824  16.3690  0.00  0.00     0.000 C
ATOM     45  C5  SUS B   3      24.192  16.757  17.7860  0.00  0.00     0.000 C
ATOM     46  O5  SUS B   3      24.464  18.019  18.4280  0.00  0.00     0.000 O
BRANCH 42 49
ATOM     47   N  SUS B   3      24.576  20.646  16.6460  0.00  0.00     0.000 N
ATOM     49  HD  SUS B   3      24.117  21.008  17.2850  0.00  0.00     0.000 HD
ATOM     49   S  SUS B   3      24.527  21.626  15.3800  0.00  0.00     0.000 S
ATOM     50   O  SUS B   3      23.249  21.581  14.7880  0.00  0.00     0.000 OA
ATOM     51   O  SUS B   3      24.718  22.947  16.1680  0.00  0.00     0.000 OA
ATOM     52   O  SUS B   3      25.639  21.375  14.5520  0.00  0.00     0.000 OA
ENDBRANCH 42 49
BRANCH 43 53
ATOM     53   O  SUS B   3      24.487  18.006  14.2320  0.00  0.00     0.000 O
ATOM     54   S  SUS B   3      23.400  17.790  13.0190  0.00  0.00     0.000 S
ATOM     55   O  SUS B   3      22.535  18.962  12.9930  0.00  0.00     0.000 OA
ATOM     56   O  SUS B   3      24.222  17.643  11.8310  0.00  0.00     0.000 OA
ATOM     57   O  SUS B   3      22.642  16.579  13.3500  0.00  0.00     0.000 OA
ENDBRANCH 43 53
BRANCH 45 58
ATOM     58   C  SUS B   3      24.815  15.625  18.5720  0.00  0.00     0.000 C
ATOM     59   S  SUS B   3      24.728  14.441  20.8470  0.00  0.00     0.000 S
ATOM     60   O  SUS B   3      24.088  15.439  19.7980  0.00  0.00     0.000 O
ATOM     61   O  SUS B   3      25.797  15.190  21.4800  0.00  0.00     0.000 OA
ATOM     62   O  SUS B   3      23.610  14.220  21.7240  0.00  0.00     0.000 OA
ATOM     63   O  SUS B   3      25.142  13.311  20.0930  0.00  0.00     0.000 OA
ENDBRANCH 45 58
BRANCH 41 64
ATOM     64  O4  IDS B   4      22.505  19.261  18.0210  0.00  0.00     0.000 O
BRANCH 64 68
ATOM     65  C1  IDS B   4      19.863  20.745  20.0450  0.00  0.00     0.000 C
ATOM     66  C2  IDS B   4      21.267  21.364  20.0330  0.00  0.00     0.000 C
ATOM     67  C3  IDS B   4      22.397  20.360  20.1910  0.00  0.00     0.000 C
ATOM     68  C4  IDS B   4      22.161  19.080  19.4130  0.00  0.00     0.000 C
ATOM     69  C5  IDS B   4      20.705  18.649  19.6310  0.00  0.00     0.000 C
ATOM     70  O5  IDS B   4      19.833  19.665  19.1300  0.00  0.00     0.000 O
ATOM     71   O  IDS B   4      22.508  20.068  21.5690  0.00  0.00     0.000 O
ATOM     73  HD  IDS B   4      22.258  20.528  20.8800  0.00  0.00     0.000 HD
BRANCH 66 73
ATOM     73   O  IDS B   4      21.491  22.003  18.7290  0.00  0.00     0.000 O
ATOM     74   S  IDS B   4      21.632  23.614  18.6890  0.00  0.00     0.000 S
ATOM     75   O  IDS B   4      20.428  24.146  19.2900  0.00  0.00     0.000 OA
ATOM     76   O  IDS B   4      21.742  23.866  17.2740  0.00  0.00     0.000 OA
ATOM     77   O  IDS B   4      22.827  23.915  19.4400  0.00  0.00     0.000 OA
ENDBRANCH 66 73
BRANCH 69 78
ATOM     78   C  IDS B   4      20.370  17.264  19.0940  0.00  0.00     0.000 C
ATOM     79   O  IDS B   4      19.235  16.822  19.2650  0.00  0.00     0.000 OA
ATOM     80   O  IDS B   4      21.222  16.669  18.4090  0.00  0.00     0.000 OA
ENDBRANCH 69 78
BRANCH 65 81
ATOM     81  O4  SGN B   5      19.500  20.472  21.3290  0.00  0.00     0.000 O
BRANCH 81 85
ATOM     82  C1  SGN B   5      16.140  19.948  23.7940  0.00  0.00     0.000 C
ATOM     83  C2  SGN B   5      16.070  19.347  22.3820  0.00  0.00     0.000 C
ATOM     84  C3  SGN B   5      17.488  19.215  21.8090  0.00  0.00     0.000 C
ATOM     85  C4  SGN B   5      18.172  20.571  21.8480  0.00  0.00     0.000 C
ATOM     86  C5  SGN B   5      18.202  21.051  23.2970  0.00  0.00     0.000 C
ATOM     87  O5  SGN B   5      16.847  21.174  23.7710  0.00  0.00     0.000 O
ATOM     88   O  SGN B   5      17.429  18.717  20.4900  0.00  0.00     0.000 O
ATOM     90  HD  SGN B   5      17.632  18.254  21.1930  0.00  0.00     0.000 HD
BRANCH 83 92
ATOM     90   N  SGN B   5      15.302  18.093  22.5100  0.00  0.00     0.000 N
ATOM     92  HD  SGN B   5      15.450  17.715  23.2750  0.00  0.00     0.000 HD
ATOM     92   S  SGN B   5      13.775  18.096  22.0400  0.00  0.00     0.000 S
ATOM     93   O  SGN B   5      13.323  16.762  22.2960  0.00  0.00     0.000 OA
ATOM     94   O  SGN B   5      13.167  19.195  22.7090  0.00  0.00     0.000 OA
ATOM     95   O  SGN B   5      13.826  18.437  20.5670  0.00  0.00     0.000 OA
ENDBRANCH 83 92
BRANCH 86 96
ATOM     96   C  SGN B   5      18.871  22.396  23.4910  0.00  0.00     0.000 C
ATOM     97   O  SGN B   5      19.783  22.349  24.5910  0.00  0.00     0.000 O
ATOM     98   S  SGN B   5      21.264  22.892  24.3040  0.00  0.00     0.000 S
ATOM     99   O  SGN B   5      21.859  22.905  25.6190  0.00  0.00     0.000 OA
ATOM    100   O  SGN B   5      21.875  21.998  23.3870  0.00  0.00     0.000 OA
ATOM    101   O  SGN B   5      21.065  24.196  23.7600  0.00  0.00     0.000 OA
ENDBRANCH 86 96
BRANCH 82 102
ATOM    102  O4  IDS B   6      16.697  19.095  24.6990  0.00  0.00     0.000 O
BRANCH 102 106
ATOM    103  C1  IDS B   6      16.132  17.551  27.9480  0.00  0.00     0.000 C
ATOM    104  C2  IDS B   6      14.970  18.185  27.1670  0.00  0.00     0.000 C
ATOM    105  C3  IDS B   6      15.252  19.564  26.6030  0.00  0.00     0.000 C
ATOM    106  C4  IDS B   6      16.650  19.687  26.0230  0.00  0.00     0.000 C
ATOM    107  C5  IDS B   6      17.658  19.012  26.9570  0.00  0.00     0.000 C
ATOM    108  O5  IDS B   6      17.328  17.643  27.1980  0.00  0.00     0.000 O
ATOM    109   O  IDS B   6      15.050  20.513  27.6370  0.00  0.00     0.000 O
ATOM    111  HD  IDS B   6      15.149  20.053  28.3640  0.00  0.00     0.000 HD
BRANCH 104 111
ATOM    111   O  IDS B   6      14.663  17.343  26.0000  0.00  0.00     0.000 O
ATOM    112   S  IDS B   6      13.293  16.515  26.0090  0.00  0.00     0.000 S
ATOM    113   O  IDS B   6      13.381  15.675  27.1930  0.00  0.00     0.000 OA
ATOM    114   O  IDS B   6      12.175  17.466  26.0140  0.00  0.00     0.000 OA
ATOM    115   O  IDS B   6      13.447  15.794  24.7640  0.00  0.00     0.000 OA
ENDBRANCH 104 111
BRANCH 107 116
ATOM    116   C  IDS B   6      19.051  19.109  26.3490  0.00  0.00     0.000 C
ATOM    117   O  IDS B   6      19.617  20.167  26.4550  0.00  0.00     0.000 OA
ATOM    118   O  IDS B   6      19.561  18.159  25.7750  0.00  0.00     0.000 OA
ENDBRANCH 107 116
BRANCH 103 119
ATOM    119  O4  SGN B   7      16.028  18.106  29.1830  0.00  0.00     0.000 O
BRANCH 119 123
ATOM    120  C1  SGN B   7      16.936  16.952  33.0990  0.00  0.00     0.000 C
ATOM    121  C2  SGN B   7      18.075  17.544  32.2480  0.00  0.00     0.000 C
ATOM    122  C3  SGN B   7      17.508  18.273  31.0230  0.00  0.00     0.000 C
ATOM    123  C4  SGN B   7      16.585  17.342  30.2540  0.00  0.00     0.000 C
ATOM    124  C5  SGN B   7      15.491  16.801  31.1890  0.00  0.00     0.000 C
ATOM    125  O5  SGN B   7      16.070  16.123  32.3270  0.00  0.00     0.000 O
ATOM    126   O  SGN B   7      18.594  18.724  30.2050  0.00  0.00     0.000 O
ATOM    128  HD  SGN B   7      18.331  18.385  30.9580  0.00  0.00     0.000 HD
BRANCH 121 130
ATOM    128   N  SGN B   7      18.699  17.955  33.5080  0.00  0.00     0.000 N
ATOM    130  HD  SGN B   7      18.915  17.133  33.6770  0.00  0.00     0.000 HD
ATOM    130   S  SGN B   7      20.297  17.986  33.7050  0.00  0.00     0.000 S
ATOM    131   O  SGN B   7      20.795  18.718  32.5900  0.00  0.00     0.000 OA
ATOM    132   O  SGN B   7      20.576  18.417  35.0280  0.00  0.00     0.000 OA
ATOM    133   O  SGN B   7      20.610  16.451  33.7150  0.00  0.00     0.000 OA
ENDBRANCH 121 130
BRANCH 124 134
ATOM    134   C  SGN B   7      14.596  15.780  30.5500  0.00  0.00     0.000 C
ATOM    135   O  SGN B   7      14.593  14.597  31.3670  0.00  0.00     0.000 O
ATOM    136   S  SGN B   7      13.593  13.460  30.9490  0.00  0.00     0.000 S
ATOM    137   O  SGN B   7      13.844  12.352  31.8390  0.00  0.00     0.000 OA
ATOM    138   O  SGN B   7      13.913  13.162  29.5710  0.00  0.00     0.000 OA
ATOM    139   O  SGN B   7      12.299  14.095  31.1430  0.00  0.00     0.000 OA
ENDBRANCH 124 134
BRANCH 120 140
ATOM    140  O4  IDS B   8      16.014  17.609  33.8130  0.00  0.00     0.000 O
BRANCH 140 144
ATOM    141  C1  IDS B   8      13.771  19.961  35.3600  0.00  0.00     0.000 C
ATOM    142  C2  IDS B   8      15.312  20.158  35.4350  0.00  0.00     0.000 C
ATOM    143  C3  IDS B   8      16.063  18.885  35.8670  0.00  0.00     0.000 C
ATOM    144  C4  IDS B   8      15.531  17.639  35.1610  0.00  0.00     0.000 C
ATOM    145  C5  IDS B   8      13.994  17.640  35.1710  0.00  0.00     0.000 C
ATOM    146  O5  IDS B   8      13.465  18.819  34.5700  0.00  0.00     0.000 O
BRANCH 142 147
ATOM    147   O  IDS B   8      15.829  20.539  34.0940  0.00  0.00     0.000 O
ATOM    148   S  IDS B   8      16.989  21.662  33.9330  0.00  0.00     0.000 S
ATOM    149   O  IDS B   8      17.064  22.395  35.1760  0.00  0.00     0.000 OA
ATOM    150   O  IDS B   8      18.204  20.924  33.6410  0.00  0.00     0.000 OA
ATOM    151   O  IDS B   8      16.556  22.503  32.8340  0.00  0.00     0.000 OA
ENDBRANCH 142 147
BRANCH 145 152
ATOM    152   C  IDS B   8      13.405  16.477  34.3980  0.00  0.00     0.000 C
ATOM    153   O  IDS B   8      13.801  15.339  34.6240  0.00  0.00     0.000 OA
ATOM    154   O  IDS B   8      12.531  16.683  33.5760  0.00  0.00     0.000 OA
ENDBRANCH 145 152
ENDBRANCH 140 144
ENDBRANCH 120 140
ENDBRANCH 119 123
ENDBRANCH 103 119
ENDBRANCH 102 106
ENDBRANCH 82 102
ENDBRANCH 81 85
ENDBRANCH 65 81
ENDBRANCH 64 68
ENDBRANCH 41 64
ENDBRANCH 40 44
ENDBRANCH 24 40
ENDBRANCH 23 27
ENDBRANCH 1 23
TORSDOF 31
ENDMDL
MODEL 10
REMARK VINA RESULT:      -7.9     10.554     21.090
ROOT
ATOM      1  C1  SGN B   1      18.319   5.362  43.7330  0.00  0.00     0.000 C
ATOM      2  C2  SGN B   1      19.814   5.500  44.0620  0.00  0.00     0.000 C
ATOM      3  C3  SGN B   1      20.541   6.287  42.9660  0.00  0.00     0.000 C
ATOM      4  C4  SGN B   1      20.314   5.631  41.6080  0.00  0.00     0.000 C
ATOM      5  C5  SGN B   1      18.818   5.397  41.4110  0.00  0.00     0.000 C
ATOM      6  O5  SGN B   1      18.301   4.629  42.5160  0.00  0.00     0.000 O
ATOM      7   O  SGN B   1      21.932   6.374  43.2520  0.00  0.00     0.000 O
ATOM      9  HD  SGN B   1      21.819   5.518  43.1850  0.00  0.00     0.000 HD
ATOM      9   O  SGN B   1      20.814   6.475  40.5880  0.00  0.00     0.000 O
ATOM     11  HD  SGN B   1      20.701   5.619  40.5220  0.00  0.00     0.000 HD
ENDROOT
BRANCH 2 13
ATOM     11   N  SGN B   1      19.959   4.806  45.3560  0.00  0.00     0.000 N
ATOM     13  HD  SGN B   1      19.341   5.401  45.2430  0.00  0.00     0.000 HD
ATOM     13   S  SGN B   1      19.526   5.486  46.7490  0.00  0.00     0.000 S
ATOM     14   O  SGN B   1      18.969   6.760  46.5140  0.00  0.00     0.000 OA
ATOM     15   O  SGN B   1      18.792   4.529  47.5070  0.00  0.00     0.000 OA
ATOM     16   O  SGN B   1      20.943   5.595  47.3930  0.00  0.00     0.000 OA
ENDBRANCH 2 13
BRANCH 5 17
ATOM     17   C  SGN B   1      18.474   4.650  40.1460  0.00  0.00     0.000 C
ATOM     18   O  SGN B   1      17.864   3.380  40.4470  0.00  0.00     0.000 O
ATOM     19   S  SGN B   1      18.404   2.127  39.6120  0.00  0.00     0.000 S
ATOM     20   O  SGN B   1      17.490   1.048  39.9220  0.00  0.00     0.000 OA
ATOM     21   O  SGN B   1      18.338   2.564  38.2370  0.00  0.00     0.000 OA
ATOM     22   O  SGN B   1      19.749   1.904  40.0950  0.00  0.00     0.000 OA
ENDBRANCH 5 17
BRANCH 1 23
ATOM     23  O4  IDS B   2      17.133   6.008  43.9270  0.00  0.00     0.000 O
BRANCH 23 27
ATOM     24  C1  IDS B   2      16.487   9.030  41.1550  0.00  0.00     0.000 C
ATOM     25  C2  IDS B   2      17.141   9.471  42.4830  0.00  0.00     0.000 C
ATOM     26  C3  IDS B   2      17.601   8.262  43.2930  0.00  0.00     0.000 C
ATOM     27  C4  IDS B   2      16.496   7.247  43.5490  0.00  0.00     0.000 C
ATOM     28  C5  IDS B   2      15.581   7.141  42.3130  0.00  0.00     0.000 C
ATOM     29  O5  IDS B   2      16.242   7.617  41.1500  0.00  0.00     0.000 O
ATOM     30   O  IDS B   2      18.082   8.702  44.5580  0.00  0.00     0.000 O
ATOM     32  HD  IDS B   2      17.449   8.877  45.1220  0.00  0.00     0.000 HD
BRANCH 25 32
ATOM     32   O  IDS B   2      18.324  10.341  42.2640  0.00  0.00     0.000 O
ATOM     33   S  IDS B   2      18.371  11.899  42.8030  0.00  0.00     0.000 S
ATOM     34   O  IDS B   2      19.563  12.494  42.2190  0.00  0.00     0.000 OA
ATOM     35   O  IDS B   2      17.166  12.596  42.3770  0.00  0.00     0.000 OA
ATOM     36   O  IDS B   2      18.477  11.811  44.2410  0.00  0.00     0.000 OA
ENDBRANCH 25 32
BRANCH 28 37
ATOM     37   C  IDS B   2      14.961   5.766  41.9910  0.00  0.00     0.000 C
ATOM     38   O  IDS B   2      15.188   5.404  40.8600  0.00  0.00     0.000 OA
ATOM     39   O  IDS B   2      14.336   5.016  42.7790  0.00  0.00     0.000 OA
ENDBRANCH 28 37
BRANCH 24 40
ATOM     40  O4  SUS B   3      15.954   9.953  40.3280  0.00  0.00     0.000 O
BRANCH 40 44
ATOM     41  C1  SUS B   3      15.565   9.959  36.1570  0.00  0.00     0.000 C
ATOM     42  C2  SUS B   3      14.731   8.926  36.9420  0.00  0.00     0.000 C
ATOM     43  C3  SUS B   3      14.620   9.371  38.3990  0.00  0.00     0.000 C
ATOM     44  C4  SUS B   3      16.019   9.586  38.9540  0.00  0.00     0.000 C
ATOM     45  C5  SUS B   3      16.699  10.683  38.1600  0.00  0.00     0.000 C
ATOM     46  O5  SUS B   3      16.816  10.242  36.7920  0.00  0.00     0.000 O
BRANCH 42 49
ATOM     47   N  SUS B   3      13.879   7.725  36.9850  0.00  0.00     0.000 N
ATOM     49  HD  SUS B   3      14.215   7.026  37.3680  0.00  0.00     0.000 HD
ATOM     49   S  SUS B   3      13.348   7.293  35.5370  0.00  0.00     0.000 S
ATOM     50   O  SUS B   3      14.439   7.068  34.6730  0.00  0.00     0.000 OA
ATOM     51   O  SUS B   3      12.711   5.948  35.9730  0.00  0.00     0.000 OA
ATOM     52   O  SUS B   3      12.355   8.199  35.1130  0.00  0.00     0.000 OA
ENDBRANCH 42 49
BRANCH 43 53
ATOM     53   O  SUS B   3      13.941   8.298  39.1510  0.00  0.00     0.000 O
ATOM     54   S  SUS B   3      12.494   8.666  39.8390  0.00  0.00     0.000 S
ATOM     55   O  SUS B   3      11.522   8.804  38.7630  0.00  0.00     0.000 OA
ATOM     56   O  SUS B   3      12.231   7.546  40.7250  0.00  0.00     0.000 OA
ATOM     57   O  SUS B   3      12.683   9.934  40.5500  0.00  0.00     0.000 OA
ENDBRANCH 43 53
BRANCH 45 58
ATOM     58   C  SUS B   3      18.063  11.025  38.7190  0.00  0.00     0.000 C
ATOM     59   S  SUS B   3      20.488  10.193  38.8110  0.00  0.00     0.000 S
ATOM     60   O  SUS B   3      19.040  10.123  38.1740  0.00  0.00     0.000 O
ATOM     61   O  SUS B   3      20.385   9.478  40.0690  0.00  0.00     0.000 OA
ATOM     62   O  SUS B   3      21.250   9.475  37.8250  0.00  0.00     0.000 OA
ATOM     63   O  SUS B   3      20.788  11.577  38.9220  0.00  0.00     0.000 OA
ENDBRANCH 45 58
BRANCH 41 64
ATOM     64  O4  IDS B   4      14.857  11.076  35.7890  0.00  0.00     0.000 O
BRANCH 64 68
ATOM     65  C1  IDS B   4      13.298  13.639  33.7210  0.00  0.00     0.000 C
ATOM     66  C2  IDS B   4      12.771  12.199  33.6930  0.00  0.00     0.000 C
ATOM     67  C3  IDS B   4      13.852  11.138  33.5720  0.00  0.00     0.000 C
ATOM     68  C4  IDS B   4      15.078  11.446  34.4100  0.00  0.00     0.000 C
ATOM     69  C5  IDS B   4      15.423  12.930  34.2230  0.00  0.00     0.000 C
ATOM     70  O5  IDS B   4      14.331  13.729  34.6850  0.00  0.00     0.000 O
ATOM     71   O  IDS B   4      14.212  11.061  32.2080  0.00  0.00     0.000 O
ATOM     73  HD  IDS B   4      13.706  11.273  32.8780  0.00  0.00     0.000 HD
BRANCH 66 73
ATOM     73   O  IDS B   4      12.090  11.920  34.9650  0.00  0.00     0.000 O
ATOM     74   S  IDS B   4      10.482  11.742  34.9410  0.00  0.00     0.000 S
ATOM     75   O  IDS B   4       9.945  12.952  34.3570  0.00  0.00     0.000 OA
ATOM     76   O  IDS B   4      10.181  11.582  36.3410  0.00  0.00     0.000 OA
ATOM     77   O  IDS B   4      10.237  10.565  34.1420  0.00  0.00     0.000 OA
ENDBRANCH 66 73
BRANCH 69 78
ATOM     78   C  IDS B   4      16.758  13.346  34.8250  0.00  0.00     0.000 C
ATOM     79   O  IDS B   4      17.701  13.576  34.0690  0.00  0.00     0.000 OA
ATOM     80   O  IDS B   4      16.823  13.544  36.0520  0.00  0.00     0.000 OA
ENDBRANCH 69 78
BRANCH 65 81
ATOM     81  O4  SGN B   5      13.604  14.034  32.4540  0.00  0.00     0.000 O
BRANCH 81 85
ATOM     82  C1  SGN B   5      13.641  17.375  29.9090  0.00  0.00     0.000 C
ATOM     83  C2  SGN B   5      14.906  17.118  30.7420  0.00  0.00     0.000 C
ATOM     84  C3  SGN B   5      14.911  15.664  31.2330  0.00  0.00     0.000 C
ATOM     85  C4  SGN B   5      13.628  15.387  31.9950  0.00  0.00     0.000 C
ATOM     86  C5  SGN B   5      12.449  15.653  31.0620  0.00  0.00     0.000 C
ATOM     87  O5  SGN B   5      12.486  17.033  30.6520  0.00  0.00     0.000 O
ATOM     88   O  SGN B   5      16.041  15.437  32.0460  0.00  0.00     0.000 O
ATOM     90  HD  SGN B   5      15.961  15.194  31.2190  0.00  0.00     0.000 HD
BRANCH 83 92
ATOM     90   N  SGN B   5      15.241  18.387  30.0670  0.00  0.00     0.000 N
ATOM     92  HD  SGN B   5      14.625  18.981  30.1980  0.00  0.00     0.000 HD
ATOM     92   S  SGN B   5      16.740  18.929  30.1870  0.00  0.00     0.000 S
ATOM     93   O  SGN B   5      16.735  20.153  29.4450  0.00  0.00     0.000 OA
ATOM     94   O  SGN B   5      17.036  18.940  31.5790  0.00  0.00     0.000 OA
ATOM     95   O  SGN B   5      17.591  17.850  29.5540  0.00  0.00     0.000 OA
ENDBRANCH 83 92
BRANCH 86 96
ATOM     96   C  SGN B   5      11.093  15.405  31.6890  0.00  0.00     0.000 C
ATOM     97   O  SGN B   5      10.959  16.144  32.9060  0.00  0.00     0.000 O
ATOM     98   S  SGN B   5       9.634  17.035  33.0490  0.00  0.00     0.000 S
ATOM     99   O  SGN B   5       9.694  17.475  34.4220  0.00  0.00     0.000 OA
ATOM    100   O  SGN B   5       9.716  18.077  32.0900  0.00  0.00     0.000 OA
ATOM    101   O  SGN B   5       8.565  16.126  32.7930  0.00  0.00     0.000 OA
ENDBRANCH 86 96
BRANCH 82 102
ATOM    102  O4  IDS B   6      13.653  16.710  28.7190  0.00  0.00     0.000 O
BRANCH 102 106
ATOM    103  C1  IDS B   6      13.390  16.870  25.0910  0.00  0.00     0.000 C
ATOM    104  C2  IDS B   6      13.863  18.088  25.8990  0.00  0.00     0.000 C
ATOM    105  C3  IDS B   6      13.016  18.424  27.1110  0.00  0.00     0.000 C
ATOM    106  C4  IDS B   6      12.574  17.190  27.8780  0.00  0.00     0.000 C
ATOM    107  C5  IDS B   6      12.124  16.105  26.8960  0.00  0.00     0.000 C
ATOM    108  O5  IDS B   6      13.150  15.777  25.9570  0.00  0.00     0.000 O
ATOM    109   O  IDS B   6      11.894  19.173  26.6720  0.00  0.00     0.000 O
ATOM    111  HD  IDS B   6      11.815  18.959  25.8370  0.00  0.00     0.000 HD
BRANCH 104 111
ATOM    111   O  IDS B   6      15.209  17.819  26.4280  0.00  0.00     0.000 O
ATOM    112   S  IDS B   6      16.405  18.779  25.9690  0.00  0.00     0.000 S
ATOM    113   O  IDS B   6      16.430  18.663  24.5190  0.00  0.00     0.000 OA
ATOM    114   O  IDS B   6      16.134  20.131  26.4710  0.00  0.00     0.000 OA
ATOM    115   O  IDS B   6      17.506  18.114  26.6310  0.00  0.00     0.000 OA
ENDBRANCH 104 111
BRANCH 107 116
ATOM    116   C  IDS B   6      11.717  14.859  27.6730  0.00  0.00     0.000 C
ATOM    117   O  IDS B   6      12.507  13.949  27.6900  0.00  0.00     0.000 OA
ATOM    118   O  IDS B   6      10.639  14.789  28.2400  0.00  0.00     0.000 OA
ENDBRANCH 107 116
BRANCH 103 119
ATOM    119  O4  SGN B   7      12.408  17.372  24.2980  0.00  0.00     0.000 O
BRANCH 119 123
ATOM    120  C1  SGN B   7      11.087  16.763  20.3780  0.00  0.00     0.000 C
ATOM    121  C2  SGN B   7      10.561  15.806  21.4640  0.00  0.00     0.000 C
ATOM    122  C3  SGN B   7      10.803  16.393  22.8610  0.00  0.00     0.000 C
ATOM    123  C4  SGN B   7      12.271  16.755  23.0180  0.00  0.00     0.000 C
ATOM    124  C5  SGN B   7      12.699  17.704  21.8860  0.00  0.00     0.000 C
ATOM    125  O5  SGN B   7      12.454  17.111  20.5910  0.00  0.00     0.000 O
ATOM    126   O  SGN B   7      10.394  15.437  23.8450  0.00  0.00     0.000 O
ATOM    128  HD  SGN B   7      10.410  15.675  23.0130  0.00  0.00     0.000 HD
BRANCH 121 130
ATOM    128   N  SGN B   7       9.784  15.284  20.3370  0.00  0.00     0.000 N
ATOM    130  HD  SGN B   7      10.201  14.527  20.3910  0.00  0.00     0.000 HD
ATOM    130   S  SGN B   7       8.618  14.190  20.5310  0.00  0.00     0.000 S
ATOM    131   O  SGN B   7       7.790  14.708  21.5650  0.00  0.00     0.000 OA
ATOM    132   O  SGN B   7       8.071  13.891  19.2570  0.00  0.00     0.000 OA
ATOM    133   O  SGN B   7       9.473  12.931  20.9000  0.00  0.00     0.000 OA
ENDBRANCH 121 130
BRANCH 124 134
ATOM    134   C  SGN B   7      14.163  18.029  21.8870  0.00  0.00     0.000 C
ATOM    135   O  SGN B   7      14.483  18.706  20.6600  0.00  0.00     0.000 O
ATOM    136   S  SGN B   7      15.944  19.270  20.5320  0.00  0.00     0.000 S
ATOM    137   O  SGN B   7      16.057  19.804  19.1960  0.00  0.00     0.000 OA
ATOM    138   O  SGN B   7      16.809  18.135  20.7610  0.00  0.00     0.000 OA
ATOM    139   O  SGN B   7      15.983  20.279  21.5790  0.00  0.00     0.000 OA
ENDBRANCH 124 134
BRANCH 120 140
ATOM    140  O4  IDS B   8      10.614  17.969  20.0430  0.00  0.00     0.000 O
BRANCH 140 144
ATOM    141  C1  IDS B   8       9.205  21.231  20.6230  0.00  0.00     0.000 C
ATOM    142  C2  IDS B   8       8.787  20.013  21.4950  0.00  0.00     0.000 C
ATOM    143  C3  IDS B   8       8.418  18.772  20.6610  0.00  0.00     0.000 C
ATOM    144  C4  IDS B   8       9.405  18.534  19.5200  0.00  0.00     0.000 C
ATOM    145  C5  IDS B   8       9.710  19.855  18.7990  0.00  0.00     0.000 C
ATOM    146  O5  IDS B   8      10.212  20.842  19.6960  0.00  0.00     0.000 O
BRANCH 142 147
ATOM    147   O  IDS B   8       9.916  19.627  22.3810  0.00  0.00     0.000 O
ATOM    148   S  IDS B   8      10.008  20.175  23.9050  0.00  0.00     0.000 S
ATOM    149   O  IDS B   8       9.107  21.299  24.0220  0.00  0.00     0.000 OA
ATOM    150   O  IDS B   8       9.620  19.056  24.7430  0.00  0.00     0.000 OA
ATOM    151   O  IDS B   8      11.392  20.569  24.0870  0.00  0.00     0.000 OA
ENDBRANCH 142 147
BRANCH 145 152
ATOM    152   C  IDS B   8      10.761  19.701  17.7180  0.00  0.00     0.000 C
ATOM    153   O  IDS B   8      10.486  19.093  16.6900  0.00  0.00     0.000 OA
ATOM    154   O  IDS B   8      11.861  20.200  17.8730  0.00  0.00     0.000 OA
ENDBRANCH 145 152
ENDBRANCH 140 144
ENDBRANCH 120 140
ENDBRANCH 119 123
ENDBRANCH 103 119
ENDBRANCH 102 106
ENDBRANCH 82 102
ENDBRANCH 81 85
ENDBRANCH 65 81
ENDBRANCH 64 68
ENDBRANCH 41 64
ENDBRANCH 40 44
ENDBRANCH 24 40
ENDBRANCH 23 27
ENDBRANCH 1 23
TORSDOF 31
ENDMDL
MODEL 11
REMARK VINA RESULT:      -7.8      1.750      2.602
ROOT
ATOM      1  C1  SGN B   1      28.292  10.005  13.2960  0.00  0.00     0.000 C
ATOM      2  C2  SGN B   1      27.725   8.587  13.4700  0.00  0.00     0.000 C
ATOM      3  C3  SGN B   1      28.845   7.589  13.7820  0.00  0.00     0.000 C
ATOM      4  C4  SGN B   1      29.917   7.645  12.6980  0.00  0.00     0.000 C
ATOM      5  C5  SGN B   1      30.330   9.099  12.4810  0.00  0.00     0.000 C
ATOM      6  O5  SGN B   1      29.165   9.892  12.1810  0.00  0.00     0.000 O
ATOM      7   O  SGN B   1      28.322   6.270  13.8980  0.00  0.00     0.000 O
ATOM      9  HD  SGN B   1      28.118   6.470  13.0810  0.00  0.00     0.000 HD
ATOM      9   O  SGN B   1      31.034   6.875  13.1010  0.00  0.00     0.000 O
ATOM     11  HD  SGN B   1      30.829   7.074  12.2830  0.00  0.00     0.000 HD
ENDROOT
BRANCH 2 13
ATOM     11   N  SGN B   1      26.373   9.128  13.2330  0.00  0.00     0.000 N
ATOM     13  HD  SGN B   1      26.768   9.250  13.9940  0.00  0.00     0.000 HD
ATOM     13   S  SGN B   1      25.314   9.349  14.4240  0.00  0.00     0.000 S
ATOM     14   O  SGN B   1      25.897   9.005  15.6610  0.00  0.00     0.000 OA
ATOM     15   O  SGN B   1      24.718  10.633  14.2640  0.00  0.00     0.000 OA
ATOM     16   O  SGN B   1      24.256   8.292  13.9810  0.00  0.00     0.000 OA
ENDBRANCH 2 13
BRANCH 5 17
ATOM     17   C  SGN B   1      31.311   9.297  11.3520  0.00  0.00     0.000 C
ATOM     18   O  SGN B   1      31.882   8.038  10.9400  0.00  0.00     0.000 O
ATOM     19   S  SGN B   1      33.465   8.026  10.7140  0.00  0.00     0.000 S
ATOM     20   O  SGN B   1      33.745   6.750  10.0910  0.00  0.00     0.000 OA
ATOM     21   O  SGN B   1      33.706   9.158   9.8500  0.00  0.00     0.000 OA
ATOM     22   O  SGN B   1      34.035   8.164  12.0360  0.00  0.00     0.000 OA
ENDBRANCH 5 17
BRANCH 1 23
ATOM     23  O4  IDS B   2      28.579  11.122  14.0250  0.00  0.00     0.000 O
BRANCH 23 27
ATOM     24  C1  IDS B   2      26.745  14.503  15.5850  0.00  0.00     0.000 C
ATOM     25  C2  IDS B   2      26.333  14.125  14.1450  0.00  0.00     0.000 C
ATOM     26  C3  IDS B   2      26.827  12.726  13.7850  0.00  0.00     0.000 C
ATOM     27  C4  IDS B   2      28.326  12.541  13.9830  0.00  0.00     0.000 C
ATOM     28  C5  IDS B   2      28.790  13.310  15.2360  0.00  0.00     0.000 C
ATOM     29  O5  IDS B   2      27.699  13.568  16.1070  0.00  0.00     0.000 O
ATOM     30   O  IDS B   2      26.539  12.465  12.4170  0.00  0.00     0.000 O
ATOM     32  HD  IDS B   2      27.101  12.836  11.8720  0.00  0.00     0.000 HD
BRANCH 25 32
ATOM     32   O  IDS B   2      24.862  14.143  13.9590  0.00  0.00     0.000 O
ATOM     33   S  IDS B   2      24.085  15.425  13.2700  0.00  0.00     0.000 S
ATOM     34   O  IDS B   2      22.663  15.188  13.4610  0.00  0.00     0.000 OA
ATOM     35   O  IDS B   2      24.511  16.656  13.9220  0.00  0.00     0.000 OA
ATOM     36   O  IDS B   2      24.442  15.391  11.8710  0.00  0.00     0.000 OA
ENDBRANCH 25 32
BRANCH 28 37
ATOM     37   C  IDS B   2      29.941  12.704  16.0670  0.00  0.00     0.000 C
ATOM     38   O  IDS B   2      29.561  11.863  16.8470  0.00  0.00     0.000 OA
ATOM     39   O  IDS B   2      31.166  12.955  15.9550  0.00  0.00     0.000 OA
ENDBRANCH 28 37
BRANCH 24 40
ATOM     40  O4  SUS B   3      26.459  15.731  16.0660  0.00  0.00     0.000 O
BRANCH 40 44
ATOM     41  C1  SUS B   3      25.154  16.611  19.9480  0.00  0.00     0.000 C
ATOM     42  C2  SUS B   3      26.538  17.147  19.5310  0.00  0.00     0.000 C
ATOM     43  C3  SUS B   3      26.634  17.160  18.0070  0.00  0.00     0.000 C
ATOM     44  C4  SUS B   3      26.328  15.766  17.4830  0.00  0.00     0.000 C
ATOM     45  C5  SUS B   3      24.914  15.392  17.8790  0.00  0.00     0.000 C
ATOM     46  O5  SUS B   3      24.843  15.362  19.3190  0.00  0.00     0.000 O
BRANCH 42 49
ATOM     47   N  SUS B   3      26.684  18.418  20.2610  0.00  0.00     0.000 N
ATOM     49  HD  SUS B   3      26.786  19.131  19.7800  0.00  0.00     0.000 HD
ATOM     49   S  SUS B   3      27.864  18.376  21.3440  0.00  0.00     0.000 S
ATOM     50   O  SUS B   3      29.082  18.048  20.7150  0.00  0.00     0.000 OA
ATOM     51   O  SUS B   3      27.826  19.881  21.7100  0.00  0.00     0.000 OA
ATOM     52   O  SUS B   3      27.463  17.587  22.4410  0.00  0.00     0.000 OA
ENDBRANCH 42 49
BRANCH 43 53
ATOM     53   O  SUS B   3      28.011  17.543  17.6410  0.00  0.00     0.000 O
ATOM     54   S  SUS B   3      28.223  19.025  16.9630  0.00  0.00     0.000 S
ATOM     55   O  SUS B   3      28.008  20.017  18.0070  0.00  0.00     0.000 OA
ATOM     56   O  SUS B   3      29.584  18.990  16.4590  0.00  0.00     0.000 OA
ATOM     57   O  SUS B   3      27.217  19.143  15.9030  0.00  0.00     0.000 OA
ENDBRANCH 43 53
BRANCH 45 58
ATOM     58   C  SUS B   3      24.500  14.054  17.3070  0.00  0.00     0.000 C
ATOM     59   S  SUS B   3      24.093  11.605  17.9540  0.00  0.00     0.000 S
ATOM     60   O  SUS B   3      24.317  13.114  18.3780  0.00  0.00     0.000 O
ATOM     61   O  SUS B   3      25.411  11.107  17.6120  0.00  0.00     0.000 OA
ATOM     62   O  SUS B   3      23.593  11.053  19.1850  0.00  0.00     0.000 OA
ATOM     63   O  SUS B   3      23.161  11.645  16.8830  0.00  0.00     0.000 OA
ENDBRANCH 45 58
BRANCH 41 64
ATOM     64  O4  IDS B   4      24.151  17.545  19.8680  0.00  0.00     0.000 O
BRANCH 64 68
ATOM     65  C1  IDS B   4      21.531  19.794  21.0310  0.00  0.00     0.000 C
ATOM     66  C2  IDS B   4      22.892  19.763  21.7380  0.00  0.00     0.000 C
ATOM     67  C3  IDS B   4      23.411  18.367  22.0370  0.00  0.00     0.000 C
ATOM     68  C4  IDS B   4      23.158  17.388  20.9060  0.00  0.00     0.000 C
ATOM     69  C5  IDS B   4      21.720  17.591  20.4120  0.00  0.00     0.000 C
ATOM     70  O5  IDS B   4      21.576  18.924  19.9150  0.00  0.00     0.000 O
ATOM     71   O  IDS B   4      22.762  17.920  23.2090  0.00  0.00     0.000 O
ATOM     73  HD  IDS B   4      23.032  18.508  22.6350  0.00  0.00     0.000 HD
BRANCH 66 73
ATOM     73   O  IDS B   4      23.897  20.374  20.8570  0.00  0.00     0.000 O
ATOM     74   S  IDS B   4      24.296  21.919  21.1200  0.00  0.00     0.000 S
ATOM     75   O  IDS B   4      23.065  22.678  21.0530  0.00  0.00     0.000 OA
ATOM     76   O  IDS B   4      25.205  22.179  20.0330  0.00  0.00     0.000 OA
ATOM     77   O  IDS B   4      24.910  21.942  22.4260  0.00  0.00     0.000 OA
ENDBRANCH 66 73
BRANCH 69 78
ATOM     78   C  IDS B   4      21.238  16.536  19.4250  0.00  0.00     0.000 C
ATOM     79   O  IDS B   4      21.707  16.533  18.2880  0.00  0.00     0.000 OA
ATOM     80   O  IDS B   4      20.468  15.647  19.8320  0.00  0.00     0.000 OA
ENDBRANCH 69 78
BRANCH 65 81
ATOM     81  O4  SGN B   5      20.542  19.573  21.9410  0.00  0.00     0.000 O
BRANCH 81 85
ATOM     82  C1  SGN B   5      16.623  20.642  23.0080  0.00  0.00     0.000 C
ATOM     83  C2  SGN B   5      16.789  19.732  21.7810  0.00  0.00     0.000 C
ATOM     84  C3  SGN B   5      18.177  19.078  21.8120  0.00  0.00     0.000 C
ATOM     85  C4  SGN B   5      19.239  20.159  21.9010  0.00  0.00     0.000 C
ATOM     86  C5  SGN B   5      18.985  20.977  23.1650  0.00  0.00     0.000 C
ATOM     87  O5  SGN B   5      17.680  21.581  23.0700  0.00  0.00     0.000 O
ATOM     88   O  SGN B   5      18.359  18.285  20.6580  0.00  0.00     0.000 O
ATOM     90  HD  SGN B   5      18.162  17.987  21.4470  0.00  0.00     0.000 HD
BRANCH 83 92
ATOM     90   N  SGN B   5      15.321  19.847  21.8880  0.00  0.00     0.000 N
ATOM     92  HD  SGN B   5      15.085  20.662  22.0620  0.00  0.00     0.000 HD
ATOM     92   S  SGN B   5      14.428  19.102  20.7930  0.00  0.00     0.000 S
ATOM     93   O  SGN B   5      13.080  19.409  21.1670  0.00  0.00     0.000 OA
ATOM     94   O  SGN B   5      14.931  19.525  19.5310  0.00  0.00     0.000 OA
ATOM     95   O  SGN B   5      14.771  17.637  20.9480  0.00  0.00     0.000 OA
ENDBRANCH 83 92
BRANCH 86 96
ATOM     96   C  SGN B   5      19.982  22.094  23.3920  0.00  0.00     0.000 C
ATOM     97   O  SGN B   5      20.042  22.954  22.2520  0.00  0.00     0.000 O
ATOM     98   S  SGN B   5      19.889  24.524  22.5430  0.00  0.00     0.000 S
ATOM     99   O  SGN B   5      20.192  25.116  21.2620  0.00  0.00     0.000 OA
ATOM    100   O  SGN B   5      18.564  24.745  22.9980  0.00  0.00     0.000 OA
ATOM    101   O  SGN B   5      20.873  24.798  23.5390  0.00  0.00     0.000 OA
ENDBRANCH 86 96
BRANCH 82 102
ATOM    102  O4  IDS B   6      16.543  19.940  24.1740  0.00  0.00     0.000 O
BRANCH 102 106
ATOM    103  C1  IDS B   6      14.543  18.982  27.0620  0.00  0.00     0.000 C
ATOM    104  C2  IDS B   6      13.872  19.386  25.7400  0.00  0.00     0.000 C
ATOM    105  C3  IDS B   6      14.410  20.654  25.1070  0.00  0.00     0.000 C
ATOM    106  C4  IDS B   6      15.922  20.759  25.1970  0.00  0.00     0.000 C
ATOM    107  C5  IDS B   6      16.387  20.333  26.5930  0.00  0.00     0.000 C
ATOM    108  O5  IDS B   6      15.951  19.012  26.9200  0.00  0.00     0.000 O
ATOM    109   O  IDS B   6      13.789  21.761  25.7400  0.00  0.00     0.000 O
ATOM    111  HD  IDS B   6      13.540  21.449  26.5080  0.00  0.00     0.000 HD
BRANCH 104 111
ATOM    111   O  IDS B   6      14.099  18.327  24.7440  0.00  0.00     0.000 O
ATOM    112   S  IDS B   6      12.906  17.302  24.4490  0.00  0.00     0.000 S
ATOM    113   O  IDS B   6      12.622  16.691  25.7380  0.00  0.00     0.000 OA
ATOM    114   O  IDS B   6      11.786  18.048  23.8650  0.00  0.00     0.000 OA
ATOM    115   O  IDS B   6      13.579  16.422  23.5180  0.00  0.00     0.000 OA
ENDBRANCH 104 111
BRANCH 107 116
ATOM    116   C  IDS B   6      17.907  20.407  26.6610  0.00  0.00     0.000 C
ATOM    117   O  IDS B   6      18.406  21.489  26.4840  0.00  0.00     0.000 OA
ATOM    118   O  IDS B   6      18.583  19.413  26.8760  0.00  0.00     0.000 OA
ENDBRANCH 107 116
BRANCH 103 119
ATOM    119  O4  SGN B   7      13.910  19.745  27.9900  0.00  0.00     0.000 O
BRANCH 119 123
ATOM    120  C1  SGN B   7      13.785  19.713  32.1700  0.00  0.00     0.000 C
ATOM    121  C2  SGN B   7      14.617  20.817  31.4900  0.00  0.00     0.000 C
ATOM    122  C3  SGN B   7      14.241  20.937  30.0070  0.00  0.00     0.000 C
ATOM    123  C4  SGN B   7      14.355  19.578  29.3370  0.00  0.00     0.000 C
ATOM    124  C5  SGN B   7      13.497  18.549  30.0910  0.00  0.00     0.000 C
ATOM    125  O5  SGN B   7      13.886  18.468  31.4810  0.00  0.00     0.000 O
ATOM    126   O  SGN B   7      15.100  21.900  29.3860  0.00  0.00     0.000 O
ATOM    128  HD  SGN B   7      14.815  21.531  30.1160  0.00  0.00     0.000 HD
BRANCH 121 130
ATOM    128   N  SGN B   7      15.415  21.157  32.6700  0.00  0.00     0.000 N
ATOM    130  HD  SGN B   7      15.997  21.558  32.1700  0.00  0.00     0.000 HD
ATOM    130   S  SGN B   7      15.489  22.655  33.2550  0.00  0.00     0.000 S
ATOM    131   O  SGN B   7      14.135  23.074  33.3780  0.00  0.00     0.000 OA
ATOM    132   O  SGN B   7      16.344  22.651  34.3870  0.00  0.00     0.000 OA
ATOM    133   O  SGN B   7      16.326  23.355  32.1310  0.00  0.00     0.000 OA
ENDBRANCH 121 130
BRANCH 124 134
ATOM    134   C  SGN B   7      13.634  17.148  29.5730  0.00  0.00     0.000 C
ATOM    135   O  SGN B   7      15.033  16.848  29.4270  0.00  0.00     0.000 O
ATOM    136   S  SGN B   7      15.395  15.370  29.0390  0.00  0.00     0.000 S
ATOM    137   O  SGN B   7      16.826  15.339  28.8490  0.00  0.00     0.000 OA
ATOM    138   O  SGN B   7      14.658  15.106  27.8240  0.00  0.00     0.000 OA
ATOM    139   O  SGN B   7      14.935  14.621  30.1970  0.00  0.00     0.000 OA
ENDBRANCH 124 134
BRANCH 120 140
ATOM    140  O4  IDS B   8      12.470  19.709  32.4180  0.00  0.00     0.000 O
BRANCH 140 144
ATOM    141  C1  IDS B   8       8.966  19.123  32.9970  0.00  0.00     0.000 C
ATOM    142  C2  IDS B   8       9.502  19.416  31.5660  0.00  0.00     0.000 C
ATOM    143  C3  IDS B   8      10.432  20.642  31.5100  0.00  0.00     0.000 C
ATOM    144  C4  IDS B   8      11.428  20.659  32.6680  0.00  0.00     0.000 C
ATOM    145  C5  IDS B   8      10.713  20.324  33.9860  0.00  0.00     0.000 C
ATOM    146  O5  IDS B   8      10.047  19.065  33.9190  0.00  0.00     0.000 O
BRANCH 142 147
ATOM    147   O  IDS B   8      10.283  18.248  31.0810  0.00  0.00     0.000 O
ATOM    148   S  IDS B   8       9.645  17.196  30.0250  0.00  0.00     0.000 S
ATOM    149   O  IDS B   8       8.213  17.395  30.0180  0.00  0.00     0.000 OA
ATOM    150   O  IDS B   8      10.261  17.507  28.7490  0.00  0.00     0.000 OA
ATOM    151   O  IDS B   8      10.007  15.884  30.5270  0.00  0.00     0.000 OA
ENDBRANCH 142 147
BRANCH 145 152
ATOM    152   C  IDS B   8      11.667  20.228  35.1590  0.00  0.00     0.000 C
ATOM    153   O  IDS B   8      11.755  19.177  35.7830  0.00  0.00     0.000 OA
ATOM    154   O  IDS B   8      12.352  21.190  35.4580  0.00  0.00     0.000 OA
ENDBRANCH 145 152
ENDBRANCH 140 144
ENDBRANCH 120 140
ENDBRANCH 119 123
ENDBRANCH 103 119
ENDBRANCH 102 106
ENDBRANCH 82 102
ENDBRANCH 81 85
ENDBRANCH 65 81
ENDBRANCH 64 68
ENDBRANCH 41 64
ENDBRANCH 40 44
ENDBRANCH 24 40
ENDBRANCH 23 27
ENDBRANCH 1 23
TORSDOF 31
ENDMDL
MODEL 12
REMARK VINA RESULT:      -7.7      2.553      4.934
ROOT
ATOM      1  C1  SGN B   1      28.834  13.657  13.0770  0.00  0.00     0.000 C
ATOM      2  C2  SGN B   1      29.679  13.003  14.1830  0.00  0.00     0.000 C
ATOM      3  C3  SGN B   1      29.556  13.785  15.4940  0.00  0.00     0.000 C
ATOM      4  C4  SGN B   1      29.937  15.245  15.2740  0.00  0.00     0.000 C
ATOM      5  C5  SGN B   1      29.164  15.787  14.0740  0.00  0.00     0.000 C
ATOM      6  O5  SGN B   1      29.406  14.949  12.9270  0.00  0.00     0.000 O
ATOM      7   O  SGN B   1      30.373  13.203  16.5030  0.00  0.00     0.000 O
ATOM      9  HD  SGN B   1      30.960  13.423  15.9060  0.00  0.00     0.000 HD
ATOM      9   O  SGN B   1      29.624  15.994  16.4350  0.00  0.00     0.000 O
ATOM     11  HD  SGN B   1      30.211  16.214  15.8380  0.00  0.00     0.000 HD
ENDROOT
BRANCH 2 13
ATOM     11   N  SGN B   1      30.316  11.768  13.6860  0.00  0.00     0.000 N
ATOM     13  HD  SGN B   1      29.514  11.981  13.4360  0.00  0.00     0.000 HD
ATOM     13   S  SGN B   1      29.463  10.473  13.2590  0.00  0.00     0.000 S
ATOM     14   O  SGN B   1      28.083  10.736  13.3880  0.00  0.00     0.000 OA
ATOM     15   O  SGN B   1      29.970   9.987  12.0200  0.00  0.00     0.000 OA
ATOM     16   O  SGN B   1      29.961   9.501  14.3730  0.00  0.00     0.000 OA
ENDBRANCH 2 13
BRANCH 5 17
ATOM     17   C  SGN B   1      29.539  17.197  13.6880  0.00  0.00     0.000 C
ATOM     18   O  SGN B   1      30.766  17.597  14.3290  0.00  0.00     0.000 O
ATOM     19   S  SGN B   1      30.771  19.056  14.9840  0.00  0.00     0.000 S
ATOM     20   O  SGN B   1      32.153  19.302  15.3400  0.00  0.00     0.000 OA
ATOM     21   O  SGN B   1      30.283  19.917  13.9320  0.00  0.00     0.000 OA
ATOM     22   O  SGN B   1      29.887  18.961  16.1250  0.00  0.00     0.000 OA
ENDBRANCH 5 17
BRANCH 1 23
ATOM     23  O4  IDS B   2      27.577  13.619  12.5500  0.00  0.00     0.000 O
BRANCH 23 27
ATOM     24  C1  IDS B   2      24.857  15.391  15.1380  0.00  0.00     0.000 C
ATOM     25  C2  IDS B   2      24.859  13.847  15.1270  0.00  0.00     0.000 C
ATOM     26  C3  IDS B   2      26.077  13.307  14.3820  0.00  0.00     0.000 C
ATOM     27  C4  IDS B   2      26.216  13.855  12.9680  0.00  0.00     0.000 C
ATOM     28  C5  IDS B   2      25.786  15.336  12.9330  0.00  0.00     0.000 C
ATOM     29  O5  IDS B   2      25.838  15.911  14.2300  0.00  0.00     0.000 O
ATOM     30   O  IDS B   2      25.978  11.891  14.2860  0.00  0.00     0.000 O
ATOM     32  HD  IDS B   2      25.441  11.628  13.6590  0.00  0.00     0.000 HD
BRANCH 25 32
ATOM     32   O  IDS B   2      24.883  13.276  16.4960  0.00  0.00     0.000 O
ATOM     33   S  IDS B   2      23.773  12.160  16.9950  0.00  0.00     0.000 S
ATOM     34   O  IDS B   2      23.967  12.009  18.4280  0.00  0.00     0.000 OA
ATOM     35   O  IDS B   2      22.433  12.639  16.6870  0.00  0.00     0.000 OA
ATOM     36   O  IDS B   2      24.099  10.943  16.2880  0.00  0.00     0.000 OA
ENDBRANCH 25 32
BRANCH 28 37
ATOM     37   C  IDS B   2      26.521  16.276  11.9550  0.00  0.00     0.000 C
ATOM     38   O  IDS B   2      26.753  15.755  10.8900  0.00  0.00     0.000 OA
ATOM     39   O  IDS B   2      26.817  17.481  12.1460  0.00  0.00     0.000 OA
ENDBRANCH 28 37
BRANCH 24 40
ATOM     40  O4  SUS B   3      23.824  16.059  15.6920  0.00  0.00     0.000 O
BRANCH 40 44
ATOM     41  C1  SUS B   3      23.747  19.682  17.7930  0.00  0.00     0.000 C
ATOM     42  C2  SUS B   3      24.074  19.747  16.2880  0.00  0.00     0.000 C
ATOM     43  C3  SUS B   3      23.595  18.463  15.6130  0.00  0.00     0.000 C
ATOM     44  C4  SUS B   3      24.211  17.272  16.3290  0.00  0.00     0.000 C
ATOM     45  C5  SUS B   3      23.743  17.269  17.7690  0.00  0.00     0.000 C
ATOM     46  O5  SUS B   3      24.220  18.474  18.4000  0.00  0.00     0.000 O
BRANCH 42 49
ATOM     47   N  SUS B   3      24.974  20.906  16.4200  0.00  0.00     0.000 N
ATOM     49  HD  SUS B   3      25.025  21.268  17.2050  0.00  0.00     0.000 HD
ATOM     49   S  SUS B   3      24.652  22.062  15.3590  0.00  0.00     0.000 S
ATOM     50   O  SUS B   3      23.314  22.482  15.4990  0.00  0.00     0.000 OA
ATOM     51   O  SUS B   3      25.621  23.119  15.9460  0.00  0.00     0.000 OA
ATOM     52   O  SUS B   3      25.077  21.653  14.0790  0.00  0.00     0.000 OA
ENDBRANCH 42 49
BRANCH 43 53
ATOM     53   O  SUS B   3      24.045  18.493  14.2080  0.00  0.00     0.000 O
ATOM     54   S  SUS B   3      22.896  18.302  13.0480  0.00  0.00     0.000 S
ATOM     55   O  SUS B   3      22.091  19.516  13.0280  0.00  0.00     0.000 OA
ATOM     56   O  SUS B   3      23.657  18.083  11.8310  0.00  0.00     0.000 OA
ATOM     57   O  SUS B   3      22.095  17.140  13.4450  0.00  0.00     0.000 OA
ENDBRANCH 43 53
BRANCH 45 58
ATOM     58   C  SUS B   3      24.235  16.053  18.5230  0.00  0.00     0.000 C
ATOM     59   S  SUS B   3      24.481  15.090  20.8890  0.00  0.00     0.000 S
ATOM     60   O  SUS B   3      23.862  16.167  19.9070  0.00  0.00     0.000 O
ATOM     61   O  SUS B   3      25.845  15.526  21.1190  0.00  0.00     0.000 OA
ATOM     62   O  SUS B   3      23.639  15.265  22.0420  0.00  0.00     0.000 OA
ATOM     63   O  SUS B   3      24.345  13.844  20.2210  0.00  0.00     0.000 OA
ENDBRANCH 45 58
BRANCH 41 64
ATOM     64  O4  IDS B   4      22.441  19.985  18.0890  0.00  0.00     0.000 O
BRANCH 64 68
ATOM     65  C1  IDS B   4      20.591  21.877  20.5940  0.00  0.00     0.000 C
ATOM     66  C2  IDS B   4      22.123  21.938  20.5550  0.00  0.00     0.000 C
ATOM     67  C3  IDS B   4      22.802  20.586  20.4210  0.00  0.00     0.000 C
ATOM     68  C4  IDS B   4      22.089  19.661  19.4530  0.00  0.00     0.000 C
ATOM     69  C5  IDS B   4      20.582  19.748  19.7320  0.00  0.00     0.000 C
ATOM     70  O5  IDS B   4      20.139  21.088  19.5070  0.00  0.00     0.000 O
ATOM     71   O  IDS B   4      22.831  20.001  21.7060  0.00  0.00     0.000 O
ATOM     73  HD  IDS B   4      22.753  20.650  21.1380  0.00  0.00     0.000 HD
BRANCH 66 73
ATOM     73   O  IDS B   4      22.536  22.704  19.3710  0.00  0.00     0.000 O
ATOM     74   S  IDS B   4      23.394  24.055  19.6030  0.00  0.00     0.000 S
ATOM     75   O  IDS B   4      22.603  24.898  20.4740  0.00  0.00     0.000 OA
ATOM     76   O  IDS B   4      23.523  24.559  18.2580  0.00  0.00     0.000 OA
ATOM     77   O  IDS B   4      24.637  23.626  20.1970  0.00  0.00     0.000 OA
ENDBRANCH 66 73
BRANCH 69 78
ATOM     78   C  IDS B   4      19.744  18.715  18.9910  0.00  0.00     0.000 C
ATOM     79   O  IDS B   4      20.045  17.526  19.0950  0.00  0.00     0.000 OA
ATOM     80   O  IDS B   4      18.722  19.095  18.3930  0.00  0.00     0.000 OA
ENDBRANCH 69 78
BRANCH 65 81
ATOM     81  O4  SGN B   5      20.184  21.499  21.8370  0.00  0.00     0.000 O
BRANCH 81 85
ATOM     82  C1  SGN B   5      16.887  21.670  24.4340  0.00  0.00     0.000 C
ATOM     83  C2  SGN B   5      16.589  21.482  22.9390  0.00  0.00     0.000 C
ATOM     84  C3  SGN B   5      17.851  20.982  22.2220  0.00  0.00     0.000 C
ATOM     85  C4  SGN B   5      18.992  21.948  22.4860  0.00  0.00     0.000 C
ATOM     86  C5  SGN B   5      19.209  22.034  23.9950  0.00  0.00     0.000 C
ATOM     87  O5  SGN B   5      18.001  22.525  24.6080  0.00  0.00     0.000 O
ATOM     88   O  SGN B   5      17.601  20.861  20.8390  0.00  0.00     0.000 O
ATOM     90  HD  SGN B   5      17.621  20.206  21.4050  0.00  0.00     0.000 HD
BRANCH 83 92
ATOM     90   N  SGN B   5      15.372  20.659  23.0790  0.00  0.00     0.000 N
ATOM     92  HD  SGN B   5      15.335  20.289  23.8620  0.00  0.00     0.000 HD
ATOM     92   S  SGN B   5      13.990  21.264  22.5520  0.00  0.00     0.000 S
ATOM     93   O  SGN B   5      13.025  20.245  22.8350  0.00  0.00     0.000 OA
ATOM     94   O  SGN B   5      13.873  22.545  23.1610  0.00  0.00     0.000 OA
ATOM     95   O  SGN B   5      14.207  21.486  21.0710  0.00  0.00     0.000 OA
ENDBRANCH 83 92
BRANCH 86 96
ATOM     96   C  SGN B   5      20.334  22.960  24.4090  0.00  0.00     0.000 C
ATOM     97   O  SGN B   5      19.852  24.297  24.5670  0.00  0.00     0.000 O
ATOM     98   S  SGN B   5      20.226  25.024  25.9460  0.00  0.00     0.000 S
ATOM     99   O  SGN B   5      19.790  26.381  25.7190  0.00  0.00     0.000 OA
ATOM    100   O  SGN B   5      19.537  24.347  26.9860  0.00  0.00     0.000 OA
ATOM    101   O  SGN B   5      21.643  24.894  26.0430  0.00  0.00     0.000 OA
ENDBRANCH 86 96
BRANCH 82 102
ATOM    102  O4  IDS B   6      17.090  20.488  25.0810  0.00  0.00     0.000 O
BRANCH 102 106
ATOM    103  C1  IDS B   6      15.881  18.019  27.4680  0.00  0.00     0.000 C
ATOM    104  C2  IDS B   6      14.898  18.918  26.7010  0.00  0.00     0.000 C
ATOM    105  C3  IDS B   6      15.257  20.391  26.6810  0.00  0.00     0.000 C
ATOM    106  C4  IDS B   6      16.743  20.630  26.4820  0.00  0.00     0.000 C
ATOM    107  C5  IDS B   6      17.544  19.650  27.3440  0.00  0.00     0.000 C
ATOM    108  O5  IDS B   6      17.207  18.292  27.0590  0.00  0.00     0.000 O
ATOM    109   O  IDS B   6      14.811  20.971  27.8960  0.00  0.00     0.000 O
ATOM    111  HD  IDS B   6      14.763  20.300  28.4420  0.00  0.00     0.000 HD
BRANCH 104 111
ATOM    111   O  IDS B   6      14.872  18.505  25.2900  0.00  0.00     0.000 O
ATOM    112   S  IDS B   6      13.849  17.350  24.8620  0.00  0.00     0.000 S
ATOM    113   O  IDS B   6      14.218  16.210  25.6860  0.00  0.00     0.000 OA
ATOM    114   O  IDS B   6      12.482  17.840  25.0710  0.00  0.00     0.000 OA
ATOM    115   O  IDS B   6      14.220  17.214  23.4700  0.00  0.00     0.000 OA
ENDBRANCH 104 111
BRANCH 107 116
ATOM    116   C  IDS B   6      19.033  19.874  27.1100  0.00  0.00     0.000 C
ATOM    117   O  IDS B   6      19.677  18.916  26.7630  0.00  0.00     0.000 OA
ATOM    118   O  IDS B   6      19.544  20.970  27.2760  0.00  0.00     0.000 OA
ENDBRANCH 107 116
BRANCH 103 119
ATOM    119  O4  SGN B   7      15.498  18.157  28.7630  0.00  0.00     0.000 O
BRANCH 119 123
ATOM    120  C1  SGN B   7      15.820  15.900  32.2690  0.00  0.00     0.000 C
ATOM    121  C2  SGN B   7      17.032  16.758  31.8600  0.00  0.00     0.000 C
ATOM    122  C3  SGN B   7      16.621  17.805  30.8170  0.00  0.00     0.000 C
ATOM    123  C4  SGN B   7      15.928  17.122  29.6490  0.00  0.00     0.000 C
ATOM    124  C5  SGN B   7      14.742  16.288  30.1610  0.00  0.00     0.000 C
ATOM    125  O5  SGN B   7      15.175  15.316  31.1390  0.00  0.00     0.000 O
ATOM    126   O  SGN B   7      17.787  18.518  30.3880  0.00  0.00     0.000 O
ATOM    128  HD  SGN B   7      17.430  17.959  30.9440  0.00  0.00     0.000 HD
BRANCH 121 130
ATOM    128   N  SGN B   7      18.125  16.095  32.5750  0.00  0.00     0.000 N
ATOM    130  HD  SGN B   7      18.703  16.605  32.1800  0.00  0.00     0.000 HD
ATOM    130   S  SGN B   7      18.925  16.809  33.7760  0.00  0.00     0.000 S
ATOM    131   O  SGN B   7      17.918  17.294  34.6570  0.00  0.00     0.000 OA
ATOM    132   O  SGN B   7      19.918  15.912  34.2460  0.00  0.00     0.000 OA
ATOM    133   O  SGN B   7      19.721  17.896  32.9770  0.00  0.00     0.000 OA
ENDBRANCH 121 130
BRANCH 124 134
ATOM    134   C  SGN B   7      14.062  15.482  29.0940  0.00  0.00     0.000 C
ATOM    135   O  SGN B   7      12.716  15.205  29.5170  0.00  0.00     0.000 O
ATOM    136   S  SGN B   7      11.785  14.498  28.4680  0.00  0.00     0.000 S
ATOM    137   O  SGN B   7      10.538  14.233  29.1460  0.00  0.00     0.000 OA
ATOM    138   O  SGN B   7      12.487  13.293  28.0890  0.00  0.00     0.000 OA
ATOM    139   O  SGN B   7      11.686  15.496  27.4140  0.00  0.00     0.000 OA
ENDBRANCH 124 134
BRANCH 120 140
ATOM    140  O4  IDS B   8      14.737  16.279  32.9560  0.00  0.00     0.000 O
BRANCH 140 144
ATOM    141  C1  IDS B   8      13.549  15.622  36.2900  0.00  0.00     0.000 C
ATOM    142  C2  IDS B   8      14.282  14.521  35.4710  0.00  0.00     0.000 C
ATOM    143  C3  IDS B   8      13.731  14.366  34.0410  0.00  0.00     0.000 C
ATOM    144  C4  IDS B   8      13.486  15.717  33.3720  0.00  0.00     0.000 C
ATOM    145  C5  IDS B   8      12.777  16.670  34.3460  0.00  0.00     0.000 C
ATOM    146  O5  IDS B   8      13.518  16.837  35.5520  0.00  0.00     0.000 O
BRANCH 142 147
ATOM    147   O  IDS B   8      15.722  14.869  35.3520  0.00  0.00     0.000 O
ATOM    148   S  IDS B   8      16.869  13.727  35.4580  0.00  0.00     0.000 S
ATOM    149   O  IDS B   8      16.265  12.552  36.0450  0.00  0.00     0.000 OA
ATOM    150   O  IDS B   8      17.322  13.505  34.0980  0.00  0.00     0.000 OA
ATOM    151   O  IDS B   8      17.894  14.293  36.3140  0.00  0.00     0.000 OA
ENDBRANCH 142 147
BRANCH 145 152
ATOM    152   C  IDS B   8      12.594  18.061  33.7730  0.00  0.00     0.000 C
ATOM    153   O  IDS B   8      11.639  18.292  33.0410  0.00  0.00     0.000 OA
ATOM    154   O  IDS B   8      13.387  18.939  34.0610  0.00  0.00     0.000 OA
ENDBRANCH 145 152
ENDBRANCH 140 144
ENDBRANCH 120 140
ENDBRANCH 119 123
ENDBRANCH 103 119
ENDBRANCH 102 106
ENDBRANCH 82 102
ENDBRANCH 81 85
ENDBRANCH 65 81
ENDBRANCH 64 68
ENDBRANCH 41 64
ENDBRANCH 40 44
ENDBRANCH 24 40
ENDBRANCH 23 27
ENDBRANCH 1 23
TORSDOF 31
ENDMDL
MODEL 13
REMARK VINA RESULT:      -7.6      2.931      5.002
ROOT
ATOM      1  C1  SGN B   1      28.861  14.833  12.9190  0.00  0.00     0.000 C
ATOM      2  C2  SGN B   1      29.493  14.040  14.0750  0.00  0.00     0.000 C
ATOM      3  C3  SGN B   1      29.339  14.796  15.3990  0.00  0.00     0.000 C
ATOM      4  C4  SGN B   1      29.930  16.196  15.2780  0.00  0.00     0.000 C
ATOM      5  C5  SGN B   1      29.364  16.871  14.0300  0.00  0.00     0.000 C
ATOM      6  O5  SGN B   1      29.611  16.039  12.8790  0.00  0.00     0.000 O
ATOM      7   O  SGN B   1      29.963  14.081  16.4590  0.00  0.00     0.000 O
ATOM      9  HD  SGN B   1      30.633  14.236  15.9320  0.00  0.00     0.000 HD
ATOM      9   O  SGN B   1      29.600  16.948  16.4310  0.00  0.00     0.000 O
ATOM     11  HD  SGN B   1      30.270  17.103  15.9050  0.00  0.00     0.000 HD
ENDROOT
BRANCH 2 13
ATOM     11   N  SGN B   1      29.631  12.574  14.1590  0.00  0.00     0.000 N
ATOM     13  HD  SGN B   1      29.572  12.967  13.3890  0.00  0.00     0.000 HD
ATOM     13   S  SGN B   1      29.041  11.589  13.0320  0.00  0.00     0.000 S
ATOM     14   O  SGN B   1      28.453  12.338  11.9920  0.00  0.00     0.000 OA
ATOM     15   O  SGN B   1      30.033  10.616  12.7190  0.00  0.00     0.000 OA
ATOM     16   O  SGN B   1      27.958  10.879  13.9020  0.00  0.00     0.000 OA
ENDBRANCH 2 13
BRANCH 5 17
ATOM     17   C  SGN B   1      29.960  18.226  13.7410  0.00  0.00     0.000 C
ATOM     18   O  SGN B   1      31.174  18.426  14.4930  0.00  0.00     0.000 O
ATOM     19   S  SGN B   1      31.326  19.845  15.2150  0.00  0.00     0.000 S
ATOM     20   O  SGN B   1      32.693  19.881  15.6870  0.00  0.00     0.000 OA
ATOM     21   O  SGN B   1      31.049  20.804  14.1700  0.00  0.00     0.000 OA
ATOM     22   O  SGN B   1      30.345  19.834  16.2780  0.00  0.00     0.000 OA
ENDBRANCH 5 17
BRANCH 1 23
ATOM     23  O4  IDS B   2      27.671  14.981  12.2690  0.00  0.00     0.000 O
BRANCH 23 27
ATOM     24  C1  IDS B   2      24.638  16.109  14.8690  0.00  0.00     0.000 C
ATOM     25  C2  IDS B   2      24.713  14.601  14.5460  0.00  0.00     0.000 C
ATOM     26  C3  IDS B   2      26.020  14.258  13.8360  0.00  0.00     0.000 C
ATOM     27  C4  IDS B   2      26.267  15.090  12.5840  0.00  0.00     0.000 C
ATOM     28  C5  IDS B   2      25.774  16.534  12.8060  0.00  0.00     0.000 C
ATOM     29  O5  IDS B   2      25.676  16.830  14.1910  0.00  0.00     0.000 O
ATOM     30   O  IDS B   2      25.996  12.891  13.4450  0.00  0.00     0.000 O
ATOM     32  HD  IDS B   2      25.534  12.749  12.7260  0.00  0.00     0.000 HD
BRANCH 25 32
ATOM     32   O  IDS B   2      24.632  13.761  15.7660  0.00  0.00     0.000 O
ATOM     33   S  IDS B   2      23.680  12.414  15.8360  0.00  0.00     0.000 S
ATOM     34   O  IDS B   2      23.680  11.990  17.2270  0.00  0.00     0.000 OA
ATOM     35   O  IDS B   2      22.338  12.747  15.3800  0.00  0.00     0.000 OA
ATOM     36   O  IDS B   2      24.323  11.437  14.9880  0.00  0.00     0.000 OA
ENDBRANCH 25 32
BRANCH 28 37
ATOM     37   C  IDS B   2      26.554  17.675  12.1200  0.00  0.00     0.000 C
ATOM     38   O  IDS B   2      26.616  18.673  12.7990  0.00  0.00     0.000 OA
ATOM     39   O  IDS B   2      27.147  17.627  11.0140  0.00  0.00     0.000 OA
ENDBRANCH 28 37
BRANCH 24 40
ATOM     40  O4  SUS B   3      23.527  16.621  15.4380  0.00  0.00     0.000 O
BRANCH 40 44
ATOM     41  C1  SUS B   3      23.102  19.448  18.5000  0.00  0.00     0.000 C
ATOM     42  C2  SUS B   3      23.584  19.961  17.1280  0.00  0.00     0.000 C
ATOM     43  C3  SUS B   3      23.224  18.939  16.0530  0.00  0.00     0.000 C
ATOM     44  C4  SUS B   3      23.802  17.588  16.4460  0.00  0.00     0.000 C
ATOM     45  C5  SUS B   3      23.184  17.153  17.7590  0.00  0.00     0.000 C
ATOM     46  O5  SUS B   3      23.550  18.115  18.7690  0.00  0.00     0.000 O
BRANCH 42 49
ATOM     47   N  SUS B   3      24.204  21.089  17.8460  0.00  0.00     0.000 N
ATOM     49  HD  SUS B   3      23.899  21.258  18.6380  0.00  0.00     0.000 HD
ATOM     49   S  SUS B   3      24.176  22.449  17.0010  0.00  0.00     0.000 S
ATOM     50   O  SUS B   3      22.848  22.777  16.6620  0.00  0.00     0.000 OA
ATOM     51   O  SUS B   3      24.695  23.374  18.1320  0.00  0.00     0.000 OA
ATOM     52   O  SUS B   3      25.116  22.368  15.9540  0.00  0.00     0.000 OA
ENDBRANCH 42 49
BRANCH 43 53
ATOM     53   O  SUS B   3      23.819  19.389  14.7800  0.00  0.00     0.000 O
ATOM     54   S  SUS B   3      22.783  19.800  13.5720  0.00  0.00     0.000 S
ATOM     55   O  SUS B   3      22.146  21.054  13.9510  0.00  0.00     0.000 OA
ATOM     56   O  SUS B   3      23.633  19.906  12.4000  0.00  0.00     0.000 OA
ATOM     57   O  SUS B   3      21.803  18.714  13.4790  0.00  0.00     0.000 OA
ENDBRANCH 43 53
BRANCH 45 58
ATOM     58   C  SUS B   3      23.636  15.768  18.1660  0.00  0.00     0.000 C
ATOM     59   S  SUS B   3      24.970  14.512  19.9630  0.00  0.00     0.000 S
ATOM     60   O  SUS B   3      24.244  15.829  19.4680  0.00  0.00     0.000 O
ATOM     61   O  SUS B   3      26.240  14.492  19.2620  0.00  0.00     0.000 OA
ATOM     62   O  SUS B   3      25.114  14.797  21.3660  0.00  0.00     0.000 OA
ATOM     63   O  SUS B   3      24.085  13.448  19.6470  0.00  0.00     0.000 OA
ENDBRANCH 45 58
BRANCH 41 64
ATOM     64  O4  IDS B   4      21.762  19.646  18.7250  0.00  0.00     0.000 O
BRANCH 64 68
ATOM     65  C1  IDS B   4      18.982  20.804  20.7770  0.00  0.00     0.000 C
ATOM     66  C2  IDS B   4      20.362  21.464  20.9020  0.00  0.00     0.000 C
ATOM     67  C3  IDS B   4      21.519  20.484  20.9980  0.00  0.00     0.000 C
ATOM     68  C4  IDS B   4      21.365  19.295  20.0690  0.00  0.00     0.000 C
ATOM     69  C5  IDS B   4      19.917  18.797  20.1680  0.00  0.00     0.000 C
ATOM     70  O5  IDS B   4      19.032  19.836  19.7440  0.00  0.00     0.000 O
ATOM     71   O  IDS B   4      21.581  20.039  22.3380  0.00  0.00     0.000 O
ATOM     73  HD  IDS B   4      21.345  20.568  21.6940  0.00  0.00     0.000 HD
BRANCH 66 73
ATOM     73   O  IDS B   4      20.619  22.255  19.6910  0.00  0.00     0.000 O
ATOM     74   S  IDS B   4      20.601  23.868  19.8210  0.00  0.00     0.000 S
ATOM     75   O  IDS B   4      19.308  24.220  20.3660  0.00  0.00     0.000 OA
ATOM     76   O  IDS B   4      20.793  24.277  18.4520  0.00  0.00     0.000 OA
ATOM     77   O  IDS B   4      21.700  24.196  20.6980  0.00  0.00     0.000 OA
ENDBRANCH 66 73
BRANCH 69 78
ATOM     78   C  IDS B   4      19.657  17.473  19.4620  0.00  0.00     0.000 C
ATOM     79   O  IDS B   4      20.586  16.675  19.3430  0.00  0.00     0.000 OA
ATOM     80   O  IDS B   4      18.492  17.197  19.1230  0.00  0.00     0.000 OA
ENDBRANCH 69 78
BRANCH 65 81
ATOM     81  O4  SGN B   5      18.574  20.374  22.0020  0.00  0.00     0.000 O
BRANCH 81 85
ATOM     82  C1  SGN B   5      15.148  19.524  24.2790  0.00  0.00     0.000 C
ATOM     83  C2  SGN B   5      15.175  18.999  22.8350  0.00  0.00     0.000 C
ATOM     84  C3  SGN B   5      16.621  18.980  22.3220  0.00  0.00     0.000 C
ATOM     85  C4  SGN B   5      17.221  20.368  22.4650  0.00  0.00     0.000 C
ATOM     86  C5  SGN B   5      17.161  20.768  23.9370  0.00  0.00     0.000 C
ATOM     87  O5  SGN B   5      15.782  20.787  24.3540  0.00  0.00     0.000 O
ATOM     88   O  SGN B   5      16.647  18.554  20.9780  0.00  0.00     0.000 O
ATOM     90  HD  SGN B   5      16.848  18.065  21.6640  0.00  0.00     0.000 HD
BRANCH 83 92
ATOM     90   N  SGN B   5      14.307  17.855  23.1780  0.00  0.00     0.000 N
ATOM     92  HD  SGN B   5      14.207  17.787  24.0360  0.00  0.00     0.000 HD
ATOM     92   S  SGN B   5      12.974  17.641  22.3230  0.00  0.00     0.000 S
ATOM     93   O  SGN B   5      12.367  16.478  22.8980  0.00  0.00     0.000 OA
ATOM     94   O  SGN B   5      12.292  18.889  22.3520  0.00  0.00     0.000 OA
ATOM     95   O  SGN B   5      13.457  17.422  20.9060  0.00  0.00     0.000 OA
ENDBRANCH 83 92
BRANCH 86 96
ATOM     96   C  SGN B   5      17.740  22.136  24.2330  0.00  0.00     0.000 C
ATOM     97   O  SGN B   5      17.365  23.070  23.2180  0.00  0.00     0.000 O
ATOM     98   S  SGN B   5      16.725  24.449  23.7300  0.00  0.00     0.000 S
ATOM     99   O  SGN B   5      16.650  25.233  22.5200  0.00  0.00     0.000 OA
ATOM    100   O  SGN B   5      15.469  24.144  24.3160  0.00  0.00     0.000 OA
ATOM    101   O  SGN B   5      17.671  24.951  24.6720  0.00  0.00     0.000 OA
ENDBRANCH 86 96
BRANCH 82 102
ATOM    102  O4  IDS B   6      15.715  18.655  25.1630  0.00  0.00     0.000 O
BRANCH 102 106
ATOM    103  C1  IDS B   6      15.551  17.176  28.4860  0.00  0.00     0.000 C
ATOM    104  C2  IDS B   6      14.296  17.772  27.8280  0.00  0.00     0.000 C
ATOM    105  C3  IDS B   6      14.486  19.143  27.2070  0.00  0.00     0.000 C
ATOM    106  C4  IDS B   6      15.807  19.275  26.4710  0.00  0.00     0.000 C
ATOM    107  C5  IDS B   6      16.927  18.639  27.2980  0.00  0.00     0.000 C
ATOM    108  O5  IDS B   6      16.653  17.270  27.6030  0.00  0.00     0.000 O
ATOM    109   O  IDS B   6      14.384  20.112  28.2380  0.00  0.00     0.000 O
ATOM    111  HD  IDS B   6      14.573  19.670  28.9590  0.00  0.00     0.000 HD
BRANCH 104 111
ATOM    111   O  IDS B   6      13.875  16.899  26.7210  0.00  0.00     0.000 O
ATOM    112   S  IDS B   6      12.499  16.096  26.8780  0.00  0.00     0.000 S
ATOM    113   O  IDS B   6      12.678  15.293  28.0770  0.00  0.00     0.000 OA
ATOM    114   O  IDS B   6      11.401  17.066  26.9480  0.00  0.00     0.000 OA
ATOM    115   O  IDS B   6      12.533  15.333  25.6490  0.00  0.00     0.000 OA
ENDBRANCH 104 111
BRANCH 107 116
ATOM    116   C  IDS B   6      18.241  18.745  26.5350  0.00  0.00     0.000 C
ATOM    117   O  IDS B   6      18.564  17.789  25.8770  0.00  0.00     0.000 OA
ATOM    118   O  IDS B   6      18.933  19.749  26.5970  0.00  0.00     0.000 OA
ENDBRANCH 107 116
BRANCH 103 119
ATOM    119  O4  SGN B   7      15.577  17.757  29.7130  0.00  0.00     0.000 O
BRANCH 119 123
ATOM    120  C1  SGN B   7      17.103  16.792  33.4850  0.00  0.00     0.000 C
ATOM    121  C2  SGN B   7      18.072  17.412  32.4610  0.00  0.00     0.000 C
ATOM    122  C3  SGN B   7      17.294  18.065  31.3120  0.00  0.00     0.000 C
ATOM    123  C4  SGN B   7      16.324  17.061  30.7120  0.00  0.00     0.000 C
ATOM    124  C5  SGN B   7      15.408  16.498  31.8110  0.00  0.00     0.000 C
ATOM    125  O5  SGN B   7      16.182  15.892  32.8710  0.00  0.00     0.000 O
ATOM    126   O  SGN B   7      18.223  18.542  30.3320  0.00  0.00     0.000 O
ATOM    128  HD  SGN B   7      18.091  18.218  31.1240  0.00  0.00     0.000 HD
BRANCH 121 130
ATOM    128   N  SGN B   7      19.366  16.978  32.9920  0.00  0.00     0.000 N
ATOM    130  HD  SGN B   7      19.767  17.285  32.2890  0.00  0.00     0.000 HD
ATOM    130   S  SGN B   7      20.453  18.020  33.5650  0.00  0.00     0.000 S
ATOM    131   O  SGN B   7      19.737  18.838  34.4830  0.00  0.00     0.000 OA
ATOM    132   O  SGN B   7      21.591  17.288  33.9920  0.00  0.00     0.000 OA
ATOM    133   O  SGN B   7      20.905  18.713  32.2350  0.00  0.00     0.000 OA
ENDBRANCH 121 130
BRANCH 124 134
ATOM    134   C  SGN B   7      14.489  15.411  31.3380  0.00  0.00     0.000 C
ATOM    135   O  SGN B   7      14.797  14.205  32.0580  0.00  0.00     0.000 O
ATOM    136   S  SGN B   7      13.841  12.982  31.8180  0.00  0.00     0.000 S
ATOM    137   O  SGN B   7      14.404  11.876  32.5540  0.00  0.00     0.000 OA
ATOM    138   O  SGN B   7      13.849  12.772  30.3880  0.00  0.00     0.000 OA
ATOM    139   O  SGN B   7      12.576  13.465  32.3490  0.00  0.00     0.000 OA
ENDBRANCH 124 134
BRANCH 120 140
ATOM    140  O4  IDS B   8      16.259  17.425  34.3070  0.00  0.00     0.000 O
BRANCH 140 144
ATOM    141  C1  IDS B   8      13.926  19.984  35.2950  0.00  0.00     0.000 C
ATOM    142  C2  IDS B   8      15.138  20.317  34.3800  0.00  0.00     0.000 C
ATOM    143  C3  IDS B   8      16.470  19.757  34.9130  0.00  0.00     0.000 C
ATOM    144  C4  IDS B   8      16.326  18.324  35.4220  0.00  0.00     0.000 C
ATOM    145  C5  IDS B   8      15.061  18.192  36.2830  0.00  0.00     0.000 C
ATOM    146  O5  IDS B   8      13.893  18.588  35.5690  0.00  0.00     0.000 O
BRANCH 142 147
ATOM    147   O  IDS B   8      14.920  19.725  33.0340  0.00  0.00     0.000 O
ATOM    148   S  IDS B   8      14.377  20.629  31.8010  0.00  0.00     0.000 S
ATOM    149   O  IDS B   8      13.827  21.844  32.3580  0.00  0.00     0.000 OA
ATOM    150   O  IDS B   8      15.534  20.871  30.9590  0.00  0.00     0.000 OA
ATOM    151   O  IDS B   8      13.362  19.821  31.1540  0.00  0.00     0.000 OA
ENDBRANCH 142 147
BRANCH 145 152
ATOM    152   C  IDS B   8      14.810  16.768  36.7360  0.00  0.00     0.000 C
ATOM    153   O  IDS B   8      14.278  15.974  35.9680  0.00  0.00     0.000 OA
ATOM    154   O  IDS B   8      15.157  16.421  37.8510  0.00  0.00     0.000 OA
ENDBRANCH 145 152
ENDBRANCH 140 144
ENDBRANCH 120 140
ENDBRANCH 119 123
ENDBRANCH 103 119
ENDBRANCH 102 106
ENDBRANCH 82 102
ENDBRANCH 81 85
ENDBRANCH 65 81
ENDBRANCH 64 68
ENDBRANCH 41 64
ENDBRANCH 40 44
ENDBRANCH 24 40
ENDBRANCH 23 27
ENDBRANCH 1 23
TORSDOF 31
ENDMDL
MODEL 14
REMARK VINA RESULT:      -7.6      4.524      8.067
ROOT
ATOM      1  C1  SGN B   1      32.304  18.745   9.0900  0.00  0.00     0.000 C
ATOM      2  C2  SGN B   1      31.620  19.142   7.7710  0.00  0.00     0.000 C
ATOM      3  C3  SGN B   1      32.066  18.222   6.6300  0.00  0.00     0.000 C
ATOM      4  C4  SGN B   1      33.587  18.231   6.5090  0.00  0.00     0.000 C
ATOM      5  C5  SGN B   1      34.198  17.970   7.8840  0.00  0.00     0.000 C
ATOM      6  O5  SGN B   1      33.689  18.932   8.8280  0.00  0.00     0.000 O
ATOM      7   O  SGN B   1      31.466  18.620   5.4030  0.00  0.00     0.000 O
ATOM      9  HD  SGN B   1      31.923  19.325   5.6120  0.00  0.00     0.000 HD
ATOM      9   O  SGN B   1      33.992  17.229   5.5950  0.00  0.00     0.000 O
ATOM     11  HD  SGN B   1      34.450  17.934   5.8040  0.00  0.00     0.000 HD
ENDROOT
BRANCH 2 13
ATOM     11   N  SGN B   1      30.798  20.285   8.2110  0.00  0.00     0.000 N
ATOM     13  HD  SGN B   1      30.729  19.517   8.6040  0.00  0.00     0.000 HD
ATOM     13   S  SGN B   1      29.353  20.093   8.8910  0.00  0.00     0.000 S
ATOM     14   O  SGN B   1      29.060  18.720   9.0310  0.00  0.00     0.000 OA
ATOM     15   O  SGN B   1      29.274  20.945  10.0300  0.00  0.00     0.000 OA
ATOM     16   O  SGN B   1      28.489  20.746   7.7680  0.00  0.00     0.000 OA
ENDBRANCH 2 13
BRANCH 5 17
ATOM     17   C  SGN B   1      35.703  18.064   7.9140  0.00  0.00     0.000 C
ATOM     18   O  SGN B   1      36.216  17.703   9.2120  0.00  0.00     0.000 O
ATOM     19   S  SGN B   1      37.343  18.665   9.8140  0.00  0.00     0.000 S
ATOM     20   O  SGN B   1      37.845  17.970  10.9800  0.00  0.00     0.000 OA
ATOM     21   O  SGN B   1      38.311  18.782   8.7490  0.00  0.00     0.000 OA
ATOM     22   O  SGN B   1      36.658  19.900  10.1260  0.00  0.00     0.000 OA
ENDBRANCH 5 17
BRANCH 1 23
ATOM     23  O4  IDS B   2      32.120  17.932  10.1690  0.00  0.00     0.000 O
BRANCH 23 27
ATOM     24  C1  IDS B   2      30.061  19.064  13.5910  0.00  0.00     0.000 C
ATOM     25  C2  IDS B   2      31.410  19.780  13.3570  0.00  0.00     0.000 C
ATOM     26  C3  IDS B   2      31.930  19.516  11.9460  0.00  0.00     0.000 C
ATOM     27  C4  IDS B   2      32.040  18.036  11.6060  0.00  0.00     0.000 C
ATOM     28  C5  IDS B   2      30.864  17.262  12.2360  0.00  0.00     0.000 C
ATOM     29  O5  IDS B   2      29.784  18.134  12.5350  0.00  0.00     0.000 O
ATOM     30   O  IDS B   2      33.227  20.085  11.8110  0.00  0.00     0.000 O
ATOM     32  HD  IDS B   2      33.851  19.600  12.1650  0.00  0.00     0.000 HD
BRANCH 25 32
ATOM     32   O  IDS B   2      31.302  21.249  13.5270  0.00  0.00     0.000 O
ATOM     33   S  IDS B   2      32.214  22.068  14.6330  0.00  0.00     0.000 S
ATOM     34   O  IDS B   2      31.684  23.421  14.6730  0.00  0.00     0.000 OA
ATOM     35   O  IDS B   2      32.104  21.415  15.9300  0.00  0.00     0.000 OA
ATOM     36   O  IDS B   2      33.564  22.045  14.1180  0.00  0.00     0.000 OA
ENDBRANCH 25 32
BRANCH 28 37
ATOM     37   C  IDS B   2      30.307  16.047  11.4660  0.00  0.00     0.000 C
ATOM     38   O  IDS B   2      29.197  16.239  11.0290  0.00  0.00     0.000 OA
ATOM     39   O  IDS B   2      30.904  14.970  11.2200  0.00  0.00     0.000 OA
ENDBRANCH 28 37
BRANCH 24 40
ATOM     40  O4  SUS B   3      29.471  19.120  14.8030  0.00  0.00     0.000 O
BRANCH 40 44
ATOM     41  C1  SUS B   3      25.418  19.329  15.8410  0.00  0.00     0.000 C
ATOM     42  C2  SUS B   3      25.901  18.044  15.1370  0.00  0.00     0.000 C
ATOM     43  C3  SUS B   3      27.418  17.936  15.2730  0.00  0.00     0.000 C
ATOM     44  C4  SUS B   3      28.052  19.210  14.7370  0.00  0.00     0.000 C
ATOM     45  C5  SUS B   3      27.571  20.383  15.5660  0.00  0.00     0.000 C
ATOM     46  O5  SUS B   3      26.141  20.487  15.4110  0.00  0.00     0.000 O
BRANCH 42 49
ATOM     47   N  SUS B   3      25.119  16.916  15.6720  0.00  0.00     0.000 N
ATOM     49  HD  SUS B   3      25.570  16.262  16.0160  0.00  0.00     0.000 HD
ATOM     49   S  SUS B   3      24.097  16.308  14.5990  0.00  0.00     0.000 S
ATOM     50   O  SUS B   3      24.800  15.894  13.4490  0.00  0.00     0.000 OA
ATOM     51   O  SUS B   3      23.659  15.083  15.4420  0.00  0.00     0.000 OA
ATOM     52   O  SUS B   3      23.021  17.200  14.4210  0.00  0.00     0.000 OA
ENDBRANCH 42 49
BRANCH 43 53
ATOM     53   O  SUS B   3      27.864  16.778  14.4740  0.00  0.00     0.000 O
ATOM     54   S  SUS B   3      28.364  15.447  15.2970  0.00  0.00     0.000 S
ATOM     55   O  SUS B   3      27.185  14.836  15.8960  0.00  0.00     0.000 OA
ATOM     56   O  SUS B   3      29.000  14.624  14.2840  0.00  0.00     0.000 OA
ATOM     57   O  SUS B   3      29.296  15.920  16.3250  0.00  0.00     0.000 OA
ENDBRANCH 43 53
BRANCH 45 58
ATOM     58   C  SUS B   3      28.238  21.678  15.1570  0.00  0.00     0.000 C
ATOM     59   S  SUS B   3      27.980  23.687  13.5810  0.00  0.00     0.000 S
ATOM     60   O  SUS B   3      27.362  22.409  14.2820  0.00  0.00     0.000 O
ATOM     61   O  SUS B   3      28.792  23.169  12.4960  0.00  0.00     0.000 OA
ATOM     62   O  SUS B   3      26.786  24.342  13.1180  0.00  0.00     0.000 OA
ATOM     63   O  SUS B   3      28.693  24.372  14.6010  0.00  0.00     0.000 OA
ENDBRANCH 45 58
BRANCH 41 64
ATOM     64  O4  IDS B   4      25.312  19.206  17.2040  0.00  0.00     0.000 O
BRANCH 64 68
ATOM     65  C1  IDS B   4      23.652  18.975  20.4400  0.00  0.00     0.000 C
ATOM     66  C2  IDS B   4      23.120  18.180  19.2400  0.00  0.00     0.000 C
ATOM     67  C3  IDS B   4      23.006  18.984  17.9560  0.00  0.00     0.000 C
ATOM     68  C4  IDS B   4      24.178  19.923  17.7410  0.00  0.00     0.000 C
ATOM     69  C5  IDS B   4      24.476  20.626  19.0720  0.00  0.00     0.000 C
ATOM     70  O5  IDS B   4      24.836  19.649  20.0510  0.00  0.00     0.000 O
ATOM     71   O  IDS B   4      21.807  19.726  18.0300  0.00  0.00     0.000 O
ATOM     73  HD  IDS B   4      22.358  19.096  18.2510  0.00  0.00     0.000 HD
BRANCH 66 73
ATOM     73   O  IDS B   4      24.060  17.092  18.9400  0.00  0.00     0.000 O
ATOM     74   S  IDS B   4      23.585  15.575  19.2400  0.00  0.00     0.000 S
ATOM     75   O  IDS B   4      23.220  15.529  20.6390  0.00  0.00     0.000 OA
ATOM     76   O  IDS B   4      24.772  14.824  18.9180  0.00  0.00     0.000 OA
ATOM     77   O  IDS B   4      22.472  15.337  18.3510  0.00  0.00     0.000 OA
ENDBRANCH 66 73
BRANCH 69 78
ATOM     78   C  IDS B   4      25.483  21.763  18.9720  0.00  0.00     0.000 C
ATOM     79   O  IDS B   4      25.487  22.462  17.9590  0.00  0.00     0.000 OA
ATOM     80   O  IDS B   4      26.198  22.015  19.9600  0.00  0.00     0.000 OA
ENDBRANCH 69 78
BRANCH 65 81
ATOM     81  O4  SGN B   5      22.651  19.742  20.9550  0.00  0.00     0.000 O
BRANCH 81 85
ATOM     82  C1  SGN B   5      20.985  20.874  24.6400  0.00  0.00     0.000 C
ATOM     83  C2  SGN B   5      21.846  21.919  23.9130  0.00  0.00     0.000 C
ATOM     84  C3  SGN B   5      21.976  21.536  22.4320  0.00  0.00     0.000 C
ATOM     85  C4  SGN B   5      22.530  20.126  22.3260  0.00  0.00     0.000 C
ATOM     86  C5  SGN B   5      21.583  19.181  23.0620  0.00  0.00     0.000 C
ATOM     87  O5  SGN B   5      21.517  19.578  24.4450  0.00  0.00     0.000 O
ATOM     88   O  SGN B   5      22.812  22.459  21.7700  0.00  0.00     0.000 O
ATOM     90  HD  SGN B   5      21.947  22.448  21.7330  0.00  0.00     0.000 HD
BRANCH 83 92
ATOM     90   N  SGN B   5      21.669  22.586  25.2180  0.00  0.00     0.000 N
ATOM     92  HD  SGN B   5      22.040  22.129  25.8530  0.00  0.00     0.000 HD
ATOM     92   S  SGN B   5      21.906  24.164  25.2920  0.00  0.00     0.000 S
ATOM     93   O  SGN B   5      21.667  24.494  26.6650  0.00  0.00     0.000 OA
ATOM     94   O  SGN B   5      23.187  24.390  24.7170  0.00  0.00     0.000 OA
ATOM     95   O  SGN B   5      20.878  24.752  24.3500  0.00  0.00     0.000 OA
ENDBRANCH 83 92
BRANCH 86 96
ATOM     96   C  SGN B   5      22.007  17.727  23.0290  0.00  0.00     0.000 C
ATOM     97   O  SGN B   5      22.987  17.467  24.0370  0.00  0.00     0.000 O
ATOM     98   S  SGN B   5      22.697  16.215  24.9960  0.00  0.00     0.000 S
ATOM     99   O  SGN B   5      23.927  16.095  25.7420  0.00  0.00     0.000 OA
ATOM    100   O  SGN B   5      21.558  16.534  25.7800  0.00  0.00     0.000 OA
ATOM    101   O  SGN B   5      22.470  15.128  24.1020  0.00  0.00     0.000 OA
ENDBRANCH 86 96
BRANCH 82 102
ATOM    102  O4  IDS B   6      19.678  20.913  24.2560  0.00  0.00     0.000 O
BRANCH 102 106
ATOM    103  C1  IDS B   6      16.282  20.558  25.5220  0.00  0.00     0.000 C
ATOM    104  C2  IDS B   6      17.459  20.792  26.4830  0.00  0.00     0.000 C
ATOM    105  C3  IDS B   6      18.673  19.917  26.2380  0.00  0.00     0.000 C
ATOM    106  C4  IDS B   6      18.983  19.745  24.7620  0.00  0.00     0.000 C
ATOM    107  C5  IDS B   6      17.685  19.504  23.9850  0.00  0.00     0.000 C
ATOM    108  O5  IDS B   6      16.742  20.558  24.1840  0.00  0.00     0.000 O
ATOM    109   O  IDS B   6      18.442  18.660  26.8540  0.00  0.00     0.000 O
ATOM    111  HD  IDS B   6      17.579  18.610  26.9090  0.00  0.00     0.000 HD
BRANCH 104 111
ATOM    111   O  IDS B   6      17.938  22.174  26.3260  0.00  0.00     0.000 O
ATOM    112   S  IDS B   6      17.920  23.128  27.6120  0.00  0.00     0.000 S
ATOM    113   O  IDS B   6      16.528  23.151  28.0310  0.00  0.00     0.000 OA
ATOM    114   O  IDS B   6      18.851  22.583  28.6070  0.00  0.00     0.000 OA
ATOM    115   O  IDS B   6      18.369  24.358  26.9960  0.00  0.00     0.000 OA
ENDBRANCH 104 111
BRANCH 107 116
ATOM    116   C  IDS B   6      18.004  19.369  22.5010  0.00  0.00     0.000 C
ATOM    117   O  IDS B   6      17.746  20.317  21.8030  0.00  0.00     0.000 OA
ATOM    118   O  IDS B   6      18.488  18.345  22.0460  0.00  0.00     0.000 OA
ENDBRANCH 107 116
BRANCH 103 119
ATOM    119  O4  SGN B   7      15.645  19.482  26.0510  0.00  0.00     0.000 O
BRANCH 119 123
ATOM    120  C1  SGN B   7      11.724  18.033  26.1810  0.00  0.00     0.000 C
ATOM    121  C2  SGN B   7      12.489  17.903  24.8500  0.00  0.00     0.000 C
ATOM    122  C3  SGN B   7      13.994  18.096  25.0740  0.00  0.00     0.000 C
ATOM    123  C4  SGN B   7      14.241  19.408  25.8000  0.00  0.00     0.000 C
ATOM    124  C5  SGN B   7      13.431  19.443  27.1060  0.00  0.00     0.000 C
ATOM    125  O5  SGN B   7      12.022  19.259  26.8480  0.00  0.00     0.000 O
ATOM    126   O  SGN B   7      14.661  18.066  23.8070  0.00  0.00     0.000 O
ATOM    128  HD  SGN B   7      13.934  17.938  24.2580  0.00  0.00     0.000 HD
BRANCH 121 130
ATOM    128   N  SGN B   7      11.359  17.753  23.9300  0.00  0.00     0.000 N
ATOM    130  HD  SGN B   7      11.890  17.847  23.2520  0.00  0.00     0.000 HD
ATOM    130   S  SGN B   7      11.137  16.421  23.0510  0.00  0.00     0.000 S
ATOM    131   O  SGN B   7      11.228  15.345  23.9770  0.00  0.00     0.000 OA
ATOM    132   O  SGN B   7       9.969  16.595  22.2650  0.00  0.00     0.000 OA
ATOM    133   O  SGN B   7      12.322  16.555  22.0350  0.00  0.00     0.000 OA
ENDBRANCH 121 130
BRANCH 124 134
ATOM    134   C  SGN B   7      13.519  20.749  27.8390  0.00  0.00     0.000 C
ATOM    135   O  SGN B   7      12.185  21.233  28.0740  0.00  0.00     0.000 O
ATOM    136   S  SGN B   7      12.054  22.518  28.9670  0.00  0.00     0.000 S
ATOM    137   O  SGN B   7      10.653  22.867  28.9730  0.00  0.00     0.000 OA
ATOM    138   O  SGN B   7      12.881  23.513  28.3230  0.00  0.00     0.000 OA
ATOM    139   O  SGN B   7      12.555  22.059  30.2530  0.00  0.00     0.000 OA
ENDBRANCH 124 134
BRANCH 120 140
ATOM    140  O4  IDS B   8      11.757  17.209  27.2340  0.00  0.00     0.000 O
BRANCH 140 144
ATOM    141  C1  IDS B   8      13.151  15.073  29.7740  0.00  0.00     0.000 C
ATOM    142  C2  IDS B   8      13.744  15.098  28.3370  0.00  0.00     0.000 C
ATOM    143  C3  IDS B   8      12.671  14.970  27.2390  0.00  0.00     0.000 C
ATOM    144  C4  IDS B   8      11.450  15.841  27.5280  0.00  0.00     0.000 C
ATOM    145  C5  IDS B   8      11.034  15.698  29.0000  0.00  0.00     0.000 C
ATOM    146  O5  IDS B   8      12.102  16.027  29.8840  0.00  0.00     0.000 O
BRANCH 142 147
ATOM    147   O  IDS B   8      14.450  16.387  28.1140  0.00  0.00     0.000 O
ATOM    148   S  IDS B   8      16.057  16.503  28.3000  0.00  0.00     0.000 S
ATOM    149   O  IDS B   8      16.496  15.345  29.0460  0.00  0.00     0.000 OA
ATOM    150   O  IDS B   8      16.601  16.544  26.9560  0.00  0.00     0.000 OA
ATOM    151   O  IDS B   8      16.268  17.734  29.0380  0.00  0.00     0.000 OA
ENDBRANCH 142 147
BRANCH 145 152
ATOM    152   C  IDS B   8       9.886  16.615  29.3730  0.00  0.00     0.000 C
ATOM    153   O  IDS B   8       8.829  16.541  28.7580  0.00  0.00     0.000 OA
ATOM    154   O  IDS B   8      10.019  17.402  30.2930  0.00  0.00     0.000 OA
ENDBRANCH 145 152
ENDBRANCH 140 144
ENDBRANCH 120 140
ENDBRANCH 119 123
ENDBRANCH 103 119
ENDBRANCH 102 106
ENDBRANCH 82 102
ENDBRANCH 81 85
ENDBRANCH 65 81
ENDBRANCH 64 68
ENDBRANCH 41 64
ENDBRANCH 40 44
ENDBRANCH 24 40
ENDBRANCH 23 27
ENDBRANCH 1 23
TORSDOF 31
ENDMDL
MODEL 15
REMARK VINA RESULT:      -7.6      7.520     22.316
ROOT
ATOM      1  C1  SGN B   1      23.842  18.067  27.2460  0.00  0.00     0.000 C
ATOM      2  C2  SGN B   1      24.927  17.452  28.1450  0.00  0.00     0.000 C
ATOM      3  C3  SGN B   1      24.320  16.941  29.4560  0.00  0.00     0.000 C
ATOM      4  C4  SGN B   1      23.566  18.064  30.1590  0.00  0.00     0.000 C
ATOM      5  C5  SGN B   1      22.608  18.720  29.1670  0.00  0.00     0.000 C
ATOM      6  O5  SGN B   1      23.343  19.158  28.0070  0.00  0.00     0.000 O
ATOM      7   O  SGN B   1      25.334  16.413  30.3040  0.00  0.00     0.000 O
ATOM      9  HD  SGN B   1      25.585  17.238  30.2210  0.00  0.00     0.000 HD
ATOM      9   O  SGN B   1      22.844  17.531  31.2550  0.00  0.00     0.000 O
ATOM     11  HD  SGN B   1      23.096  18.356  31.1720  0.00  0.00     0.000 HD
ENDROOT
BRANCH 2 13
ATOM     11   N  SGN B   1      26.130  17.631  27.3090  0.00  0.00     0.000 N
ATOM     13  HD  SGN B   1      25.434  17.221  26.9970  0.00  0.00     0.000 HD
ATOM     13   S  SGN B   1      26.524  16.601  26.1380  0.00  0.00     0.000 S
ATOM     14   O  SGN B   1      25.544  15.592  26.0290  0.00  0.00     0.000 OA
ATOM     15   O  SGN B   1      26.889  17.350  24.9830  0.00  0.00     0.000 OA
ATOM     16   O  SGN B   1      27.842  16.047  26.7630  0.00  0.00     0.000 OA
ENDBRANCH 2 13
BRANCH 5 17
ATOM     17   C  SGN B   1      21.881  19.921  29.7180  0.00  0.00     0.000 C
ATOM     18   O  SGN B   1      21.838  20.987  28.7490  0.00  0.00     0.000 O
ATOM     19   S  SGN B   1      22.186  22.449  29.2970  0.00  0.00     0.000 S
ATOM     20   O  SGN B   1      21.847  23.346  28.2130  0.00  0.00     0.000 OA
ATOM     21   O  SGN B   1      21.340  22.599  30.4590  0.00  0.00     0.000 OA
ATOM     22   O  SGN B   1      23.600  22.412  29.6000  0.00  0.00     0.000 OA
ENDBRANCH 5 17
BRANCH 1 23
ATOM     23  O4  IDS B   2      22.960  17.715  26.2680  0.00  0.00     0.000 O
BRANCH 23 27
ATOM     24  C1  IDS B   2      23.998  18.095  22.2670  0.00  0.00     0.000 C
ATOM     25  C2  IDS B   2      23.664  19.414  22.9980  0.00  0.00     0.000 C
ATOM     26  C3  IDS B   2      23.591  19.199  24.5070  0.00  0.00     0.000 C
ATOM     27  C4  IDS B   2      22.624  18.096  24.9170  0.00  0.00     0.000 C
ATOM     28  C5  IDS B   2      22.678  16.942  23.8970  0.00  0.00     0.000 C
ATOM     29  O5  IDS B   2      23.889  16.975  23.1560  0.00  0.00     0.000 O
ATOM     30   O  IDS B   2      23.160  20.402  25.1320  0.00  0.00     0.000 O
ATOM     32  HD  IDS B   2      22.305  20.528  25.0780  0.00  0.00     0.000 HD
BRANCH 25 32
ATOM     32   O  IDS B   2      24.677  20.469  22.7440  0.00  0.00     0.000 O
ATOM     33   S  IDS B   2      24.280  21.904  22.0340  0.00  0.00     0.000 S
ATOM     34   O  IDS B   2      25.538  22.575  21.7460  0.00  0.00     0.000 OA
ATOM     35   O  IDS B   2      23.523  21.650  20.8160  0.00  0.00     0.000 OA
ATOM     36   O  IDS B   2      23.511  22.628  23.0190  0.00  0.00     0.000 OA
ENDBRANCH 25 32
BRANCH 28 37
ATOM     37   C  IDS B   2      22.470  15.506  24.4210  0.00  0.00     0.000 C
ATOM     38   O  IDS B   2      21.517  15.411  25.1580  0.00  0.00     0.000 OA
ATOM     39   O  IDS B   2      23.130  14.485  24.1090  0.00  0.00     0.000 OA
ENDBRANCH 28 37
BRANCH 24 40
ATOM     40  O4  SUS B   3      24.041  18.065  20.9190  0.00  0.00     0.000 O
BRANCH 40 44
ATOM     41  C1  SUS B   3      26.519  15.798  18.4160  0.00  0.00     0.000 C
ATOM     42  C2  SUS B   3      25.119  15.231  18.7230  0.00  0.00     0.000 C
ATOM     43  C3  SUS B   3      24.216  16.360  19.2160  0.00  0.00     0.000 C
ATOM     44  C4  SUS B   3      24.881  17.039  20.4030  0.00  0.00     0.000 C
ATOM     45  C5  SUS B   3      26.200  17.632  19.9520  0.00  0.00     0.000 C
ATOM     46  O5  SUS B   3      27.050  16.554  19.5100  0.00  0.00     0.000 O
BRANCH 42 49
ATOM     47   N  SUS B   3      25.321  14.339  17.5680  0.00  0.00     0.000 N
ATOM     49  HD  SUS B   3      25.100  14.654  16.7920  0.00  0.00     0.000 HD
ATOM     49   S  SUS B   3      24.601  12.919  17.7510  0.00  0.00     0.000 S
ATOM     50   O  SUS B   3      23.221  13.106  17.9700  0.00  0.00     0.000 OA
ATOM     51   O  SUS B   3      24.861  12.400  16.3140  0.00  0.00     0.000 OA
ATOM     52   O  SUS B   3      25.314  12.152  18.6940  0.00  0.00     0.000 OA
ENDBRANCH 42 49
BRANCH 43 53
ATOM     53   O  SUS B   3      22.931  15.765  19.6330  0.00  0.00     0.000 O
ATOM     54   S  SUS B   3      21.589  16.220  18.8010  0.00  0.00     0.000 S
ATOM     55   O  SUS B   3      21.670  15.617  17.4780  0.00  0.00     0.000 OA
ATOM     56   O  SUS B   3      20.489  15.720  19.6060  0.00  0.00     0.000 OA
ATOM     57   O  SUS B   3      21.627  17.684  18.7200  0.00  0.00     0.000 OA
ENDBRANCH 43 53
BRANCH 45 58
ATOM     58   C  SUS B   3      26.877  18.413  21.0570  0.00  0.00     0.000 C
ATOM     59   S  SUS B   3      29.185  19.131  21.9190  0.00  0.00     0.000 S
ATOM     60   O  SUS B   3      28.280  18.531  20.7660  0.00  0.00     0.000 O
ATOM     61   O  SUS B   3      29.371  18.043  22.8600  0.00  0.00     0.000 OA
ATOM     62   O  SUS B   3      30.382  19.441  21.1850  0.00  0.00     0.000 OA
ATOM     63   O  SUS B   3      28.471  20.252  22.4180  0.00  0.00     0.000 OA
ENDBRANCH 45 58
BRANCH 41 64
ATOM     64  O4  IDS B   4      26.606  16.432  17.2010  0.00  0.00     0.000 O
BRANCH 64 68
ATOM     65  C1  IDS B   4      27.938  17.343  13.9340  0.00  0.00     0.000 C
ATOM     66  C2  IDS B   4      27.751  15.867  14.3080  0.00  0.00     0.000 C
ATOM     67  C3  IDS B   4      28.270  15.498  15.6880  0.00  0.00     0.000 C
ATOM     68  C4  IDS B   4      27.967  16.555  16.7330  0.00  0.00     0.000 C
ATOM     69  C5  IDS B   4      28.282  17.930  16.1280  0.00  0.00     0.000 C
ATOM     70  O5  IDS B   4      27.444  18.147  14.9900  0.00  0.00     0.000 O
ATOM     71   O  IDS B   4      29.667  15.322  15.5770  0.00  0.00     0.000 O
ATOM     73  HD  IDS B   4      28.856  15.388  15.2810  0.00  0.00     0.000 HD
BRANCH 66 73
ATOM     73   O  IDS B   4      26.314  15.564  14.3360  0.00  0.00     0.000 O
ATOM     74   S  IDS B   4      25.730  14.552  13.2180  0.00  0.00     0.000 S
ATOM     75   O  IDS B   4      26.083  15.114  11.9320  0.00  0.00     0.000 OA
ATOM     76   O  IDS B   4      24.317  14.579  13.5020  0.00  0.00     0.000 OA
ATOM     77   O  IDS B   4      26.364  13.282  13.4790  0.00  0.00     0.000 OA
ENDBRANCH 66 73
BRANCH 69 78
ATOM     78   C  IDS B   4      28.240  19.081  17.1230  0.00  0.00     0.000 C
ATOM     79   O  IDS B   4      29.292  19.454  17.6400  0.00  0.00     0.000 OA
ATOM     80   O  IDS B   4      27.161  19.676  17.3010  0.00  0.00     0.000 OA
ENDBRANCH 69 78
BRANCH 65 81
ATOM     81  O4  SGN B   5      29.229  17.555  13.5550  0.00  0.00     0.000 O
BRANCH 81 85
ATOM     82  C1  SGN B   5      31.847  20.589  12.2990  0.00  0.00     0.000 C
ATOM     83  C2  SGN B   5      31.886  20.205  13.7860  0.00  0.00     0.000 C
ATOM     84  C3  SGN B   5      31.246  18.822  13.9760  0.00  0.00     0.000 C
ATOM     85  C4  SGN B   5      29.842  18.836  13.3990  0.00  0.00     0.000 C
ATOM     86  C5  SGN B   5      29.935  19.205  11.9200  0.00  0.00     0.000 C
ATOM     87  O5  SGN B   5      30.522  20.516  11.8070  0.00  0.00     0.000 O
ATOM     88   O  SGN B   5      31.226  18.488  15.3460  0.00  0.00     0.000 O
ATOM     90  HD  SGN B   5      31.791  18.185  14.7640  0.00  0.00     0.000 HD
BRANCH 83 92
ATOM     90   N  SGN B   5      33.203  20.868  13.7320  0.00  0.00     0.000 N
ATOM     92  HD  SGN B   5      33.299  21.309  12.9930  0.00  0.00     0.000 HD
ATOM     92   S  SGN B   5      33.718  21.624  15.0420  0.00  0.00     0.000 S
ATOM     93   O  SGN B   5      34.994  22.154  14.6680  0.00  0.00     0.000 OA
ATOM     94   O  SGN B   5      32.664  22.502  15.4200  0.00  0.00     0.000 OA
ATOM     95   O  SGN B   5      33.807  20.545  16.0990  0.00  0.00     0.000 OA
ENDBRANCH 83 92
BRANCH 86 96
ATOM     96   C  SGN B   5      28.600  19.247  11.2060  0.00  0.00     0.000 C
ATOM     97   O  SGN B   5      28.178  20.598  11.0070  0.00  0.00     0.000 O
ATOM     98   S  SGN B   5      27.741  20.989   9.5150  0.00  0.00     0.000 S
ATOM     99   O  SGN B   5      27.190  22.313   9.6810  0.00  0.00     0.000 OA
ATOM    100   O  SGN B   5      28.902  20.929   8.7010  0.00  0.00     0.000 OA
ATOM    101   O  SGN B   5      26.765  20.010   9.1630  0.00  0.00     0.000 OA
ENDBRANCH 86 96
BRANCH 82 102
ATOM    102  O4  IDS B   6      32.679  19.822  11.5380  0.00  0.00     0.000 O
BRANCH 102 106
ATOM    103  C1  IDS B   6      35.337  19.568   9.0630  0.00  0.00     0.000 C
ATOM    104  C2  IDS B   6      35.260  20.775  10.0120  0.00  0.00     0.000 C
ATOM    105  C3  IDS B   6      33.887  21.406  10.1370  0.00  0.00     0.000 C
ATOM    106  C4  IDS B   6      32.771  20.378  10.2010  0.00  0.00     0.000 C
ATOM    107  C5  IDS B   6      33.025  19.275   9.1700  0.00  0.00     0.000 C
ATOM    108  O5  IDS B   6      34.298  18.654   9.3550  0.00  0.00     0.000 O
ATOM    109   O  IDS B   6      33.702  22.282   9.0370  0.00  0.00     0.000 O
ATOM    111  HD  IDS B   6      34.249  21.982   8.4370  0.00  0.00     0.000 HD
BRANCH 104 111
ATOM    111   O  IDS B   6      35.612  20.338  11.3720  0.00  0.00     0.000 O
ATOM    112   S  IDS B   6      37.054  20.738  11.9410  0.00  0.00     0.000 S
ATOM    113   O  IDS B   6      37.995  20.159  10.9950  0.00  0.00     0.000 OA
ATOM    114   O  IDS B   6      37.119  22.200  12.0530  0.00  0.00     0.000 OA
ATOM    115   O  IDS B   6      37.001  20.051  13.2130  0.00  0.00     0.000 OA
ENDBRANCH 104 111
BRANCH 107 116
ATOM    116   C  IDS B   6      31.921  18.230   9.2670  0.00  0.00     0.000 C
ATOM    117   O  IDS B   6      32.176  17.228   9.8860  0.00  0.00     0.000 OA
ATOM    118   O  IDS B   6      30.835  18.401   8.7340  0.00  0.00     0.000 OA
ENDBRANCH 107 116
BRANCH 103 119
ATOM    119  O4  SGN B   7      35.456  20.133   7.8340  0.00  0.00     0.000 O
BRANCH 119 123
ATOM    120  C1  SGN B   7      35.495  18.720   3.8980  0.00  0.00     0.000 C
ATOM    121  C2  SGN B   7      34.147  19.194   4.4720  0.00  0.00     0.000 C
ATOM    122  C3  SGN B   7      34.367  20.037   5.7360  0.00  0.00     0.000 C
ATOM    123  C4  SGN B   7      35.220  19.263   6.7270  0.00  0.00     0.000 C
ATOM    124  C5  SGN B   7      36.535  18.830   6.0580  0.00  0.00     0.000 C
ATOM    125  O5  SGN B   7      36.281  18.040   4.8760  0.00  0.00     0.000 O
ATOM    126   O  SGN B   7      33.094  20.377   6.2960  0.00  0.00     0.000 O
ATOM    128  HD  SGN B   7      33.540  20.045   5.6320  0.00  0.00     0.000 HD
BRANCH 121 130
ATOM    128   N  SGN B   7      33.296  18.506   3.4990  0.00  0.00     0.000 N
ATOM    130  HD  SGN B   7      32.608  18.614   4.0130  0.00  0.00     0.000 HD
ATOM    130   S  SGN B   7      32.226  19.290   2.5870  0.00  0.00     0.000 S
ATOM    131   O  SGN B   7      32.951  20.368   2.0060  0.00  0.00     0.000 OA
ATOM    132   O  SGN B   7      31.564  18.345   1.7620  0.00  0.00     0.000 OA
ATOM    133   O  SGN B   7      31.165  19.681   3.6710  0.00  0.00     0.000 OA
ENDBRANCH 121 130
BRANCH 124 134
ATOM    134   C  SGN B   7      37.398  17.959   6.9230  0.00  0.00     0.000 C
ATOM    135   O  SGN B   7      37.444  16.643   6.3460  0.00  0.00     0.000 O
ATOM    136   S  SGN B   7      38.423  15.617   7.0200  0.00  0.00     0.000 S
ATOM    137   O  SGN B   7      38.220  14.357   6.3450  0.00  0.00     0.000 OA
ATOM    138   O  SGN B   7      38.033  15.580   8.4120  0.00  0.00     0.000 OA
ATOM    139   O  SGN B   7      39.725  16.218   6.7750  0.00  0.00     0.000 OA
ENDBRANCH 124 134
BRANCH 120 140
ATOM    140  O4  IDS B   8      36.457  19.461   3.3370  0.00  0.00     0.000 O
BRANCH 140 144
ATOM    141  C1  IDS B   8      38.605  22.326   2.9610  0.00  0.00     0.000 C
ATOM    142  C2  IDS B   8      37.136  22.486   3.4450  0.00  0.00     0.000 C
ATOM    143  C3  IDS B   8      36.125  21.729   2.5640  0.00  0.00     0.000 C
ATOM    144  C4  IDS B   8      36.614  20.327   2.2060  0.00  0.00     0.000 C
ATOM    145  C5  IDS B   8      38.089  20.374   1.7780  0.00  0.00     0.000 C
ATOM    146  O5  IDS B   8      38.913  20.948   2.7900  0.00  0.00     0.000 O
BRANCH 142 147
ATOM    147   O  IDS B   8      37.006  21.948   4.8250  0.00  0.00     0.000 O
ATOM    148   S  IDS B   8      37.083  22.929   6.1150  0.00  0.00     0.000 S
ATOM    149   O  IDS B   8      37.659  24.181   5.6800  0.00  0.00     0.000 OA
ATOM    150   O  IDS B   8      35.715  23.070   6.5760  0.00  0.00     0.000 OA
ATOM    151   O  IDS B   8      37.936  22.242   7.0660  0.00  0.00     0.000 OA
ENDBRANCH 142 147
BRANCH 145 152
ATOM    152   C  IDS B   8      38.662  18.998   1.5040  0.00  0.00     0.000 C
ATOM    153   O  IDS B   8      38.125  18.275   0.6720  0.00  0.00     0.000 OA
ATOM    154   O  IDS B   8      39.660  18.633   2.0990  0.00  0.00     0.000 OA
ENDBRANCH 145 152
ENDBRANCH 140 144
ENDBRANCH 120 140
ENDBRANCH 119 123
ENDBRANCH 103 119
ENDBRANCH 102 106
ENDBRANCH 82 102
ENDBRANCH 81 85
ENDBRANCH 65 81
ENDBRANCH 64 68
ENDBRANCH 41 64
ENDBRANCH 40 44
ENDBRANCH 24 40
ENDBRANCH 23 27
ENDBRANCH 1 23
TORSDOF 31
ENDMDL
MODEL 16
REMARK VINA RESULT:      -7.5      8.201     23.288
ROOT
ATOM      1  C1  SGN B   1      24.740  17.889  25.8070  0.00  0.00     0.000 C
ATOM      2  C2  SGN B   1      25.999  17.541  26.6180  0.00  0.00     0.000 C
ATOM      3  C3  SGN B   1      25.628  16.784  27.8980  0.00  0.00     0.000 C
ATOM      4  C4  SGN B   1      24.628  17.594  28.7170  0.00  0.00     0.000 C
ATOM      5  C5  SGN B   1      23.475  18.024  27.8130  0.00  0.00     0.000 C
ATOM      6  O5  SGN B   1      23.996  18.735  26.6730  0.00  0.00     0.000 O
ATOM      7   O  SGN B   1      26.792  16.504  28.6680  0.00  0.00     0.000 O
ATOM      9  HD  SGN B   1      26.799  17.369  28.6480  0.00  0.00     0.000 HD
ATOM      9   O  SGN B   1      24.142  16.800  29.7840  0.00  0.00     0.000 O
ATOM     11  HD  SGN B   1      24.149  17.666  29.7640  0.00  0.00     0.000 HD
ENDROOT
BRANCH 2 13
ATOM     11   N  SGN B   1      27.016  18.135  25.7300  0.00  0.00     0.000 N
ATOM     13  HD  SGN B   1      26.483  17.519  25.4370  0.00  0.00     0.000 HD
ATOM     13   S  SGN B   1      27.663  17.324  24.5000  0.00  0.00     0.000 S
ATOM     14   O  SGN B   1      27.077  16.045  24.4000  0.00  0.00     0.000 OA
ATOM     15   O  SGN B   1      27.681  18.177  23.3590  0.00  0.00     0.000 OA
ATOM     16   O  SGN B   1      29.126  17.238  25.0340  0.00  0.00     0.000 OA
ENDBRANCH 2 13
BRANCH 5 17
ATOM     17   C  SGN B   1      22.471  18.927  28.4850  0.00  0.00     0.000 C
ATOM     18   O  SGN B   1      22.582  20.277  27.9930  0.00  0.00     0.000 O
ATOM     19   S  SGN B   1      22.563  21.431  29.0990  0.00  0.00     0.000 S
ATOM     20   O  SGN B   1      22.449  22.666  28.3520  0.00  0.00     0.000 OA
ATOM     21   O  SGN B   1      21.401  21.131  29.9020  0.00  0.00     0.000 OA
ATOM     22   O  SGN B   1      23.818  21.296  29.8070  0.00  0.00     0.000 OA
ENDBRANCH 5 17
BRANCH 1 23
ATOM     23  O4  IDS B   2      23.941  17.374  24.8290  0.00  0.00     0.000 O
BRANCH 23 27
ATOM     24  C1  IDS B   2      24.989  17.729  20.8290  0.00  0.00     0.000 C
ATOM     25  C2  IDS B   2      24.471  19.020  21.5000  0.00  0.00     0.000 C
ATOM     26  C3  IDS B   2      24.401  18.857  23.0160  0.00  0.00     0.000 C
ATOM     27  C4  IDS B   2      23.582  17.653  23.4600  0.00  0.00     0.000 C
ATOM     28  C5  IDS B   2      23.805  16.476  22.4890  0.00  0.00     0.000 C
ATOM     29  O5  IDS B   2      25.014  16.641  21.7620  0.00  0.00     0.000 O
ATOM     30   O  IDS B   2      23.804  20.017  23.5840  0.00  0.00     0.000 O
ATOM     32  HD  IDS B   2      22.941  20.025  23.5150  0.00  0.00     0.000 HD
BRANCH 25 32
ATOM     32   O  IDS B   2      25.340  20.189  21.2140  0.00  0.00     0.000 O
ATOM     33   S  IDS B   2      24.774  21.523  20.4240  0.00  0.00     0.000 S
ATOM     34   O  IDS B   2      25.938  22.343  20.1290  0.00  0.00     0.000 OA
ATOM     35   O  IDS B   2      24.091  21.111  19.2060  0.00  0.00     0.000 OA
ATOM     36   O  IDS B   2      23.888  22.181  21.3560  0.00  0.00     0.000 OA
ENDBRANCH 25 32
BRANCH 28 37
ATOM     37   C  IDS B   2      23.780  15.048  23.0710  0.00  0.00     0.000 C
ATOM     38   O  IDS B   2      23.015  14.318  22.4840  0.00  0.00     0.000 OA
ATOM     39   O  IDS B   2      24.492  14.598  24.0010  0.00  0.00     0.000 OA
ENDBRANCH 28 37
BRANCH 24 40
ATOM     40  O4  SUS B   3      25.059  17.651  19.4830  0.00  0.00     0.000 O
BRANCH 40 44
ATOM     41  C1  SUS B   3      27.894  15.664  17.1260  0.00  0.00     0.000 C
ATOM     42  C2  SUS B   3      26.559  14.938  17.3840  0.00  0.00     0.000 C
ATOM     43  C3  SUS B   3      25.508  15.957  17.8190  0.00  0.00     0.000 C
ATOM     44  C4  SUS B   3      26.036  16.726  19.0200  0.00  0.00     0.000 C
ATOM     45  C5  SUS B   3      27.294  17.466  18.6140  0.00  0.00     0.000 C
ATOM     46  O5  SUS B   3      28.284  16.492  18.2270  0.00  0.00     0.000 O
BRANCH 42 49
ATOM     47   N  SUS B   3      26.235  14.147  16.1850  0.00  0.00     0.000 N
ATOM     49  HD  SUS B   3      25.467  14.300  15.8160  0.00  0.00     0.000 HD
ATOM     49   S  SUS B   3      26.361  12.569  16.4330  0.00  0.00     0.000 S
ATOM     50   O  SUS B   3      25.522  12.182  17.4970  0.00  0.00     0.000 OA
ATOM     51   O  SUS B   3      25.762  12.125  15.0740  0.00  0.00     0.000 OA
ATOM     52   O  SUS B   3      27.723  12.217  16.5150  0.00  0.00     0.000 OA
ENDBRANCH 42 49
BRANCH 43 53
ATOM     53   O  SUS B   3      24.286  15.219  18.1940  0.00  0.00     0.000 O
ATOM     54   S  SUS B   3      22.991  15.355  17.1910  0.00  0.00     0.000 S
ATOM     55   O  SUS B   3      23.304  14.622  15.9720  0.00  0.00     0.000 OA
ATOM     56   O  SUS B   3      21.895  14.784  17.9520  0.00  0.00     0.000 OA
ATOM     57   O  SUS B   3      22.824  16.786  16.9210  0.00  0.00     0.000 OA
ENDBRANCH 43 53
BRANCH 45 58
ATOM     58   C  SUS B   3      27.825  18.336  19.7320  0.00  0.00     0.000 C
ATOM     59   S  SUS B   3      29.298  20.388  20.1860  0.00  0.00     0.000 S
ATOM     60   O  SUS B   3      28.492  19.479  19.1700  0.00  0.00     0.000 O
ATOM     61   O  SUS B   3      30.532  19.670  20.4410  0.00  0.00     0.000 OA
ATOM     62   O  SUS B   3      29.497  21.569  19.3890  0.00  0.00     0.000 OA
ATOM     63   O  SUS B   3      28.445  20.550  21.3100  0.00  0.00     0.000 OA
ENDBRANCH 45 58
BRANCH 41 64
ATOM     64  O4  IDS B   4      27.957  16.288  15.9040  0.00  0.00     0.000 O
BRANCH 64 68
ATOM     65  C1  IDS B   4      29.356  17.292  12.6930  0.00  0.00     0.000 C
ATOM     66  C2  IDS B   4      29.403  15.822  13.1300  0.00  0.00     0.000 C
ATOM     67  C3  IDS B   4      29.870  15.607  14.5600  0.00  0.00     0.000 C
ATOM     68  C4  IDS B   4      29.308  16.634  15.5250  0.00  0.00     0.000 C
ATOM     69  C5  IDS B   4      29.423  18.018  14.8700  0.00  0.00     0.000 C
ATOM     70  O5  IDS B   4      28.649  18.036  13.6680  0.00  0.00     0.000 O
ATOM     71   O  IDS B   4      31.281  15.679  14.5550  0.00  0.00     0.000 O
ATOM     73  HD  IDS B   4      30.496  15.588  14.2010  0.00  0.00     0.000 HD
BRANCH 66 73
ATOM     73   O  IDS B   4      28.042  15.269  13.0760  0.00  0.00     0.000 O
ATOM     74   S  IDS B   4      27.800  13.938  12.1890  0.00  0.00     0.000 S
ATOM     75   O  IDS B   4      28.252  14.250  10.8500  0.00  0.00     0.000 OA
ATOM     76   O  IDS B   4      26.374  13.762  12.3020  0.00  0.00     0.000 OA
ATOM     77   O  IDS B   4      28.578  12.902  12.8270  0.00  0.00     0.000 OA
ENDBRANCH 66 73
BRANCH 69 78
ATOM     78   C  IDS B   4      29.103  19.181  15.7980  0.00  0.00     0.000 C
ATOM     79   O  IDS B   4      30.034  19.827  16.2790  0.00  0.00     0.000 OA
ATOM     80   O  IDS B   4      27.912  19.508  15.9560  0.00  0.00     0.000 OA
ENDBRANCH 69 78
BRANCH 65 81
ATOM     81  O4  SGN B   5      30.615  17.715  12.3910  0.00  0.00     0.000 O
BRANCH 81 85
ATOM     82  C1  SGN B   5      32.624  20.738  10.2790  0.00  0.00     0.000 C
ATOM     83  C2  SGN B   5      32.580  20.867  11.8090  0.00  0.00     0.000 C
ATOM     84  C3  SGN B   5      32.244  19.504  12.4300  0.00  0.00     0.000 C
ATOM     85  C4  SGN B   5      30.944  18.990  11.8360  0.00  0.00     0.000 C
ATOM     86  C5  SGN B   5      31.117  18.883  10.3230  0.00  0.00     0.000 C
ATOM     87  O5  SGN B   5      31.411  20.191   9.7980  0.00  0.00     0.000 O
ATOM     88   O  SGN B   5      32.146  19.626  13.8320  0.00  0.00     0.000 O
ATOM     90  HD  SGN B   5      32.824  19.302  13.4020  0.00  0.00     0.000 HD
BRANCH 83 92
ATOM     90   N  SGN B   5      32.846  22.305  11.6110  0.00  0.00     0.000 N
ATOM     92  HD  SGN B   5      32.109  22.743  11.4890  0.00  0.00     0.000 HD
ATOM     92   S  SGN B   5      33.903  23.014  12.5780  0.00  0.00     0.000 S
ATOM     93   O  SGN B   5      33.927  24.377  12.1380  0.00  0.00     0.000 OA
ATOM     94   O  SGN B   5      33.487  22.699  13.9010  0.00  0.00     0.000 OA
ATOM     95   O  SGN B   5      35.204  22.283  12.3270  0.00  0.00     0.000 OA
ENDBRANCH 83 92
BRANCH 86 96
ATOM     96   C  SGN B   5      29.894  18.368   9.5930  0.00  0.00     0.000 C
ATOM     97   O  SGN B   5      28.744  19.148   9.9280  0.00  0.00     0.000 O
ATOM     98   S  SGN B   5      27.884  19.704   8.6940  0.00  0.00     0.000 S
ATOM     99   O  SGN B   5      26.717  20.254   9.3410  0.00  0.00     0.000 OA
ATOM    100   O  SGN B   5      28.686  20.655   8.0110  0.00  0.00     0.000 OA
ATOM    101   O  SGN B   5      27.602  18.547   7.9080  0.00  0.00     0.000 OA
ENDBRANCH 86 96
BRANCH 82 102
ATOM    102  O4  IDS B   6      33.683  19.998   9.8450  0.00  0.00     0.000 O
BRANCH 102 106
ATOM    103  C1  IDS B   6      36.680  19.219   7.9300  0.00  0.00     0.000 C
ATOM    104  C2  IDS B   6      36.626  20.460   8.8340  0.00  0.00     0.000 C
ATOM    105  C3  IDS B   6      35.378  21.309   8.6870  0.00  0.00     0.000 C
ATOM    106  C4  IDS B   6      34.116  20.476   8.5460  0.00  0.00     0.000 C
ATOM    107  C5  IDS B   6      34.373  19.305   7.5930  0.00  0.00     0.000 C
ATOM    108  O5  IDS B   6      35.467  18.496   8.0260  0.00  0.00     0.000 O
ATOM    109   O  IDS B   6      35.550  22.157   7.5630  0.00  0.00     0.000 O
ATOM    111  HD  IDS B   6      36.144  21.748   7.0830  0.00  0.00     0.000 HD
BRANCH 104 111
ATOM    111   O  IDS B   6      36.640  20.029  10.2400  0.00  0.00     0.000 O
ATOM    112   S  IDS B   6      37.978  20.263  11.0870  0.00  0.00     0.000 S
ATOM    113   O  IDS B   6      39.005  19.537  10.3550  0.00  0.00     0.000 OA
ATOM    114   O  IDS B   6      38.211  21.707  11.1980  0.00  0.00     0.000 OA
ATOM    115   O  IDS B   6      37.584  19.632  12.3270  0.00  0.00     0.000 OA
ENDBRANCH 104 111
BRANCH 107 116
ATOM    116   C  IDS B   6      33.112  18.456   7.4870  0.00  0.00     0.000 C
ATOM    117   O  IDS B   6      32.203  18.914   6.8420  0.00  0.00     0.000 OA
ATOM    118   O  IDS B   6      33.029  17.370   8.0390  0.00  0.00     0.000 OA
ENDBRANCH 107 116
BRANCH 103 119
ATOM    119  O4  SGN B   7      37.119  19.706   6.7410  0.00  0.00     0.000 O
BRANCH 119 123
ATOM    120  C1  SGN B   7      37.765  18.056   2.9530  0.00  0.00     0.000 C
ATOM    121  C2  SGN B   7      36.474  18.867   3.1670  0.00  0.00     0.000 C
ATOM    122  C3  SGN B   7      36.579  19.721   4.4370  0.00  0.00     0.000 C
ATOM    123  C4  SGN B   7      36.955  18.840   5.6180  0.00  0.00     0.000 C
ATOM    124  C5  SGN B   7      38.248  18.070   5.3040  0.00  0.00     0.000 C
ATOM    125  O5  SGN B   7      38.104  17.281   4.1020  0.00  0.00     0.000 O
ATOM    126   O  SGN B   7      35.328  20.383   4.6580  0.00  0.00     0.000 O
ATOM    128  HD  SGN B   7      35.829  19.913   4.1300  0.00  0.00     0.000 HD
BRANCH 121 130
ATOM    128   N  SGN B   7      35.654  18.345   2.0710  0.00  0.00     0.000 N
ATOM    130  HD  SGN B   7      34.959  18.754   2.3860  0.00  0.00     0.000 HD
ATOM    130   S  SGN B   7      35.146  19.275   0.8590  0.00  0.00     0.000 S
ATOM    131   O  SGN B   7      36.310  19.947   0.3920  0.00  0.00     0.000 OA
ATOM    132   O  SGN B   7      34.376  18.476  -0.0250  0.00  0.00     0.000 OA
ATOM    133   O  SGN B   7      34.094  20.162   1.6070  0.00  0.00     0.000 OA
ENDBRANCH 121 130
BRANCH 124 134
ATOM    134   C  SGN B   7      38.640  17.085   6.3650  0.00  0.00     0.000 C
ATOM    135   O  SGN B   7      38.343  15.760   5.8920  0.00  0.00     0.000 O
ATOM    136   S  SGN B   7      38.823  14.569   6.7970  0.00  0.00     0.000 S
ATOM    137   O  SGN B   7      38.326  13.363   6.1780  0.00  0.00     0.000 OA
ATOM    138   O  SGN B   7      38.236  14.821   8.0940  0.00  0.00     0.000 OA
ATOM    139   O  SGN B   7      40.270  14.705   6.7530  0.00  0.00     0.000 OA
ENDBRANCH 124 134
BRANCH 120 140
ATOM    140  O4  IDS B   8      38.984  18.514   2.6440  0.00  0.00     0.000 O
BRANCH 140 144
ATOM    141  C1  IDS B   8      42.019  20.449   2.6300  0.00  0.00     0.000 C
ATOM    142  C2  IDS B   8      40.634  21.136   2.7990  0.00  0.00     0.000 C
ATOM    143  C3  IDS B   8      39.601  20.676   1.7540  0.00  0.00     0.000 C
ATOM    144  C4  IDS B   8      39.633  19.163   1.5440  0.00  0.00     0.000 C
ATOM    145  C5  IDS B   8      41.084  18.675   1.4250  0.00  0.00     0.000 C
ATOM    146  O5  IDS B   8      41.857  19.038   2.5660  0.00  0.00     0.000 O
BRANCH 142 147
ATOM    147   O  IDS B   8      40.078  20.809   4.1390  0.00  0.00     0.000 O
ATOM    148   S  IDS B   8      40.029  21.922   5.3180  0.00  0.00     0.000 S
ATOM    149   O  IDS B   8      40.918  22.998   4.9420  0.00  0.00     0.000 OA
ATOM    150   O  IDS B   8      38.642  22.342   5.3960  0.00  0.00     0.000 OA
ATOM    151   O  IDS B   8      40.484  21.235   6.5110  0.00  0.00     0.000 OA
ENDBRANCH 142 147
BRANCH 145 152
ATOM    152   C  IDS B   8      41.186  17.167   1.3140  0.00  0.00     0.000 C
ATOM    153   O  IDS B   8      41.022  16.629   0.2250  0.00  0.00     0.000 OA
ATOM    154   O  IDS B   8      41.449  16.508   2.3040  0.00  0.00     0.000 OA
ENDBRANCH 145 152
ENDBRANCH 140 144
ENDBRANCH 120 140
ENDBRANCH 119 123
ENDBRANCH 103 119
ENDBRANCH 102 106
ENDBRANCH 82 102
ENDBRANCH 81 85
ENDBRANCH 65 81
ENDBRANCH 64 68
ENDBRANCH 41 64
ENDBRANCH 40 44
ENDBRANCH 24 40
ENDBRANCH 23 27
ENDBRANCH 1 23
TORSDOF 31
ENDMDL
MODEL 17
REMARK VINA RESULT:      -7.5      2.466      4.733
ROOT
ATOM      1  C1  SGN B   1      29.224  12.760  13.1940  0.00  0.00     0.000 C
ATOM      2  C2  SGN B   1      29.950  11.908  14.2480  0.00  0.00     0.000 C
ATOM      3  C3  SGN B   1      29.691  12.451  15.6570  0.00  0.00     0.000 C
ATOM      4  C4  SGN B   1      30.090  13.920  15.7380  0.00  0.00     0.000 C
ATOM      5  C5  SGN B   1      29.445  14.677  14.5790  0.00  0.00     0.000 C
ATOM      6  O5  SGN B   1      29.806  14.049  13.3330  0.00  0.00     0.000 O
ATOM      7   O  SGN B   1      30.400  11.687  16.6260  0.00  0.00     0.000 O
ATOM      9  HD  SGN B   1      31.046  11.999  16.1400  0.00  0.00     0.000 HD
ATOM      9   O  SGN B   1      29.658  14.459  16.9740  0.00  0.00     0.000 O
ATOM     11  HD  SGN B   1      30.303  14.771  16.4880  0.00  0.00     0.000 HD
ENDROOT
BRANCH 2 13
ATOM     11   N  SGN B   1      30.633  10.827  13.5120  0.00  0.00     0.000 N
ATOM     13  HD  SGN B   1      29.812  11.033  13.3290  0.00  0.00     0.000 HD
ATOM     13   S  SGN B   1      29.835   9.583  12.8760  0.00  0.00     0.000 S
ATOM     14   O  SGN B   1      28.449   9.735  13.0910  0.00  0.00     0.000 OA
ATOM     15   O  SGN B   1      30.318   9.365  11.5540  0.00  0.00     0.000 OA
ATOM     16   O  SGN B   1      30.428   8.455  13.7750  0.00  0.00     0.000 OA
ENDBRANCH 2 13
BRANCH 5 17
ATOM     17   C  SGN B   1      29.856  16.126  14.4870  0.00  0.00     0.000 C
ATOM     18   O  SGN B   1      29.595  16.814  15.7270  0.00  0.00     0.000 O
ATOM     19   S  SGN B   1      28.900  18.249  15.6000  0.00  0.00     0.000 S
ATOM     20   O  SGN B   1      28.964  18.816  16.9300  0.00  0.00     0.000 OA
ATOM     21   O  SGN B   1      29.711  18.949  14.6320  0.00  0.00     0.000 OA
ATOM     22   O  SGN B   1      27.552  17.977  15.1500  0.00  0.00     0.000 OA
ENDBRANCH 5 17
BRANCH 1 23
ATOM     23  O4  IDS B   2      28.028  12.837  12.5430  0.00  0.00     0.000 O
BRANCH 23 27
ATOM     24  C1  IDS B   2      25.134  14.603  14.9390  0.00  0.00     0.000 C
ATOM     25  C2  IDS B   2      25.092  13.061  14.8700  0.00  0.00     0.000 C
ATOM     26  C3  IDS B   2      26.357  12.509  14.2180  0.00  0.00     0.000 C
ATOM     27  C4  IDS B   2      26.642  13.102  12.8450  0.00  0.00     0.000 C
ATOM     28  C5  IDS B   2      26.260  14.596  12.8260  0.00  0.00     0.000 C
ATOM     29  O5  IDS B   2      26.209  15.123  14.1440  0.00  0.00     0.000 O
ATOM     30   O  IDS B   2      26.226  11.101  14.0600  0.00  0.00     0.000 O
ATOM     32  HD  IDS B   2      25.742  10.878  13.3780  0.00  0.00     0.000 HD
BRANCH 25 32
ATOM     32   O  IDS B   2      24.973  12.442  16.2130  0.00  0.00     0.000 O
ATOM     33   S  IDS B   2      23.741  11.412  16.5910  0.00  0.00     0.000 S
ATOM     34   O  IDS B   2      23.822  11.193  18.0270  0.00  0.00     0.000 OA
ATOM     35   O  IDS B   2      22.471  12.017  16.2170  0.00  0.00     0.000 OA
ATOM     36   O  IDS B   2      24.009  10.196  15.8580  0.00  0.00     0.000 OA
ENDBRANCH 25 32
BRANCH 28 37
ATOM     37   C  IDS B   2      27.108  15.546  11.9560  0.00  0.00     0.000 C
ATOM     38   O  IDS B   2      27.182  16.660  12.4170  0.00  0.00     0.000 OA
ATOM     39   O  IDS B   2      27.739  15.252  10.9110  0.00  0.00     0.000 OA
ENDBRANCH 28 37
BRANCH 24 40
ATOM     40  O4  SUS B   3      24.074  15.284  15.4210  0.00  0.00     0.000 O
BRANCH 40 44
ATOM     41  C1  SUS B   3      23.910  18.844  17.6230  0.00  0.00     0.000 C
ATOM     42  C2  SUS B   3      24.276  18.955  16.1300  0.00  0.00     0.000 C
ATOM     43  C3  SUS B   3      23.826  17.688  15.4060  0.00  0.00     0.000 C
ATOM     44  C4  SUS B   3      24.434  16.481  16.1030  0.00  0.00     0.000 C
ATOM     45  C5  SUS B   3      23.928  16.433  17.5300  0.00  0.00     0.000 C
ATOM     46  O5  SUS B   3      24.378  17.623  18.2080  0.00  0.00     0.000 O
BRANCH 42 49
ATOM     47   N  SUS B   3      24.424  19.799  14.9310  0.00  0.00     0.000 N
ATOM     49  HD  SUS B   3      24.954  19.504  14.3130  0.00  0.00     0.000 HD
ATOM     49   S  SUS B   3      24.858  21.301  15.2830  0.00  0.00     0.000 S
ATOM     50   O  SUS B   3      26.065  21.294  16.0100  0.00  0.00     0.000 OA
ATOM     51   O  SUS B   3      25.101  21.764  13.8240  0.00  0.00     0.000 OA
ATOM     52   O  SUS B   3      23.761  21.983  15.8460  0.00  0.00     0.000 OA
ENDBRANCH 42 49
BRANCH 43 53
ATOM     53   O  SUS B   3      24.312  17.762  14.0140  0.00  0.00     0.000 O
ATOM     54   S  SUS B   3      23.205  17.540  12.8200  0.00  0.00     0.000 S
ATOM     55   O  SUS B   3      22.347  18.716  12.7960  0.00  0.00     0.000 OA
ATOM     56   O  SUS B   3      24.008  17.376  11.6220  0.00  0.00     0.000 OA
ATOM     57   O  SUS B   3      22.447  16.337  13.1760  0.00  0.00     0.000 OA
ENDBRANCH 43 53
BRANCH 45 58
ATOM     58   C  SUS B   3      24.411  15.200  18.2610  0.00  0.00     0.000 C
ATOM     59   S  SUS B   3      24.522  14.131  20.5920  0.00  0.00     0.000 S
ATOM     60   O  SUS B   3      23.935  15.233  19.6170  0.00  0.00     0.000 O
ATOM     61   O  SUS B   3      25.849  14.603  20.9420  0.00  0.00     0.000 OA
ATOM     62   O  SUS B   3      23.594  14.220  21.6860  0.00  0.00     0.000 OA
ATOM     63   O  SUS B   3      24.484  12.916  19.8590  0.00  0.00     0.000 OA
ENDBRANCH 45 58
BRANCH 41 64
ATOM     64  O4  IDS B   4      22.594  19.128  17.8930  0.00  0.00     0.000 O
BRANCH 64 68
ATOM     65  C1  IDS B   4      20.061  20.795  19.9130  0.00  0.00     0.000 C
ATOM     66  C2  IDS B   4      21.487  21.356  19.8450  0.00  0.00     0.000 C
ATOM     67  C3  IDS B   4      22.580  20.316  20.0190  0.00  0.00     0.000 C
ATOM     68  C4  IDS B   4      22.277  19.015  19.2980  0.00  0.00     0.000 C
ATOM     69  C5  IDS B   4      20.810  18.652  19.5660  0.00  0.00     0.000 C
ATOM     70  O5  IDS B   4      19.967  19.681  19.0430  0.00  0.00     0.000 O
ATOM     71   O  IDS B   4      22.713  20.074  21.4040  0.00  0.00     0.000 O
ATOM     73  HD  IDS B   4      22.465  20.516  20.7020  0.00  0.00     0.000 HD
BRANCH 66 73
ATOM     73   O  IDS B   4      21.705  21.933  18.5110  0.00  0.00     0.000 O
ATOM     74   S  IDS B   4      21.778  23.545  18.3850  0.00  0.00     0.000 S
ATOM     75   O  IDS B   4      20.542  24.055  18.9400  0.00  0.00     0.000 OA
ATOM     76   O  IDS B   4      21.900  23.725  16.9610  0.00  0.00     0.000 OA
ATOM     77   O  IDS B   4      22.946  23.938  19.1360  0.00  0.00     0.000 OA
ENDBRANCH 66 73
BRANCH 69 78
ATOM     78   C  IDS B   4      20.410  17.261  19.0940  0.00  0.00     0.000 C
ATOM     79   O  IDS B   4      21.234  16.586  18.4790  0.00  0.00     0.000 OA
ATOM     80   O  IDS B   4      19.301  16.812  19.4360  0.00  0.00     0.000 OA
ENDBRANCH 69 78
BRANCH 65 81
ATOM     81  O4  SGN B   5      19.718  20.587  21.2150  0.00  0.00     0.000 O
BRANCH 81 85
ATOM     82  C1  SGN B   5      16.373  20.222  23.7290  0.00  0.00     0.000 C
ATOM     83  C2  SGN B   5      16.246  19.647  22.3100  0.00  0.00     0.000 C
ATOM     84  C3  SGN B   5      17.645  19.442  21.7120  0.00  0.00     0.000 C
ATOM     85  C4  SGN B   5      18.406  20.755  21.7580  0.00  0.00     0.000 C
ATOM     86  C5  SGN B   5      18.487  21.212  23.2120  0.00  0.00     0.000 C
ATOM     87  O5  SGN B   5      17.150  21.405  23.7110  0.00  0.00     0.000 O
ATOM     88   O  SGN B   5      17.535  18.968  20.3870  0.00  0.00     0.000 O
ATOM     90  HD  SGN B   5      17.723  18.483  21.0800  0.00  0.00     0.000 HD
BRANCH 83 92
ATOM     90   N  SGN B   5      14.852  19.526  22.7790  0.00  0.00     0.000 N
ATOM     92  HD  SGN B   5      14.517  20.303  22.9610  0.00  0.00     0.000 HD
ATOM     92   S  SGN B   5      13.877  18.535  21.9900  0.00  0.00     0.000 S
ATOM     93   O  SGN B   5      12.625  18.650  22.6760  0.00  0.00     0.000 OA
ATOM     94   O  SGN B   5      13.976  18.907  20.6200  0.00  0.00     0.000 OA
ATOM     95   O  SGN B   5      14.515  17.171  22.1360  0.00  0.00     0.000 OA
ENDBRANCH 83 92
BRANCH 86 96
ATOM     96   C  SGN B   5      19.236  22.513  23.4140  0.00  0.00     0.000 C
ATOM     97   O  SGN B   5      19.736  22.603  24.7500  0.00  0.00     0.000 O
ATOM     98   S  SGN B   5      21.291  22.965  24.9000  0.00  0.00     0.000 S
ATOM     99   O  SGN B   5      21.432  23.180  26.3200  0.00  0.00     0.000 OA
ATOM    100   O  SGN B   5      22.034  21.869  24.3900  0.00  0.00     0.000 OA
ATOM    101   O  SGN B   5      21.454  24.154  24.1290  0.00  0.00     0.000 OA
ENDBRANCH 86 96
BRANCH 82 102
ATOM    102  O4  IDS B   6      16.894  19.325  24.6130  0.00  0.00     0.000 O
BRANCH 102 106
ATOM    103  C1  IDS B   6      16.182  17.704  27.7940  0.00  0.00     0.000 C
ATOM    104  C2  IDS B   6      15.070  18.417  27.0100  0.00  0.00     0.000 C
ATOM    105  C3  IDS B   6      15.429  19.800  26.5000  0.00  0.00     0.000 C
ATOM    106  C4  IDS B   6      16.844  19.874  25.9550  0.00  0.00     0.000 C
ATOM    107  C5  IDS B   6      17.798  19.121  26.8870  0.00  0.00     0.000 C
ATOM    108  O5  IDS B   6      17.398  17.763  27.0740  0.00  0.00     0.000 O
ATOM    109   O  IDS B   6      15.249  20.723  27.5610  0.00  0.00     0.000 O
ATOM    111  HD  IDS B   6      15.308  20.235  28.2740  0.00  0.00     0.000 HD
BRANCH 104 111
ATOM    111   O  IDS B   6      14.750  17.631  25.8090  0.00  0.00     0.000 O
ATOM    112   S  IDS B   6      13.503  16.629  25.8740  0.00  0.00     0.000 S
ATOM    113   O  IDS B   6      13.819  15.723  26.9680  0.00  0.00     0.000 OA
ATOM    114   O  IDS B   6      12.282  17.420  26.0660  0.00  0.00     0.000 OA
ATOM    115   O  IDS B   6      13.617  16.029  24.5630  0.00  0.00     0.000 OA
ENDBRANCH 104 111
BRANCH 107 116
ATOM    116   C  IDS B   6      19.208  19.171  26.3130  0.00  0.00     0.000 C
ATOM    117   O  IDS B   6      19.617  18.165  25.7920  0.00  0.00     0.000 OA
ATOM    118   O  IDS B   6      19.890  20.182  26.3890  0.00  0.00     0.000 OA
ENDBRANCH 107 116
BRANCH 103 119
ATOM    119  O4  SGN B   7      16.076  18.221  29.0450  0.00  0.00     0.000 O
BRANCH 119 123
ATOM    120  C1  SGN B   7      16.859  16.890  32.9310  0.00  0.00     0.000 C
ATOM    121  C2  SGN B   7      18.020  17.533  32.1500  0.00  0.00     0.000 C
ATOM    122  C3  SGN B   7      17.488  18.313  30.9410  0.00  0.00     0.000 C
ATOM    123  C4  SGN B   7      16.603  17.412  30.0970  0.00  0.00     0.000 C
ATOM    124  C5  SGN B   7      15.483  16.817  30.9660  0.00  0.00     0.000 C
ATOM    125  O5  SGN B   7      16.029  16.090  32.0900  0.00  0.00     0.000 O
ATOM    126   O  SGN B   7      18.597  18.813  30.1850  0.00  0.00     0.000 O
ATOM    128  HD  SGN B   7      18.312  18.436  30.9110  0.00  0.00     0.000 HD
BRANCH 121 130
ATOM    128   N  SGN B   7      18.596  17.883  33.4510  0.00  0.00     0.000 N
ATOM    130  HD  SGN B   7      18.818  17.056  33.5830  0.00  0.00     0.000 HD
ATOM    130   S  SGN B   7      20.186  17.924  33.7040  0.00  0.00     0.000 S
ATOM    131   O  SGN B   7      20.710  18.720  32.6470  0.00  0.00     0.000 OA
ATOM    132   O  SGN B   7      20.413  18.288  35.0560  0.00  0.00     0.000 OA
ATOM    133   O  SGN B   7      20.520  16.395  33.6430  0.00  0.00     0.000 OA
ENDBRANCH 121 130
BRANCH 124 134
ATOM    134   C  SGN B   7      14.622  15.820  30.2480  0.00  0.00     0.000 C
ATOM    135   O  SGN B   7      14.596  14.603  31.0120  0.00  0.00     0.000 O
ATOM    136   S  SGN B   7      13.621  13.479  30.5060  0.00  0.00     0.000 S
ATOM    137   O  SGN B   7      13.845  12.334  31.3560  0.00  0.00     0.000 OA
ATOM    138   O  SGN B   7      13.998  13.243  29.1300  0.00  0.00     0.000 OA
ATOM    139   O  SGN B   7      12.316  14.097  30.6750  0.00  0.00     0.000 OA
ENDBRANCH 124 134
BRANCH 120 140
ATOM    140  O4  IDS B   8      15.906  17.503  33.6420  0.00  0.00     0.000 O
BRANCH 140 144
ATOM    141  C1  IDS B   8      14.359  18.991  36.5330  0.00  0.00     0.000 C
ATOM    142  C2  IDS B   8      15.274  17.741  36.6700  0.00  0.00     0.000 C
ATOM    143  C3  IDS B   8      14.924  16.623  35.6700  0.00  0.00     0.000 C
ATOM    144  C4  IDS B   8      14.660  17.171  34.2680  0.00  0.00     0.000 C
ATOM    145  C5  IDS B   8      13.761  18.414  34.3450  0.00  0.00     0.000 C
ATOM    146  O5  IDS B   8      14.326  19.423  35.1780  0.00  0.00     0.000 O
BRANCH 142 147
ATOM    147   O  IDS B   8      16.686  18.130  36.4170  0.00  0.00     0.000 O
ATOM    148   S  IDS B   8      17.684  18.498  37.6420  0.00  0.00     0.000 S
ATOM    149   O  IDS B   8      16.870  18.744  38.8120  0.00  0.00     0.000 OA
ATOM    150   O  IDS B   8      18.551  17.345  37.7940  0.00  0.00     0.000 OA
ATOM    151   O  IDS B   8      18.391  19.690  37.2140  0.00  0.00     0.000 OA
ENDBRANCH 142 147
BRANCH 145 152
ATOM    152   C  IDS B   8      13.544  19.062  32.9930  0.00  0.00     0.000 C
ATOM    153   O  IDS B   8      12.485  18.887  32.4020  0.00  0.00     0.000 OA
ATOM    154   O  IDS B   8      14.416  19.766  32.5170  0.00  0.00     0.000 OA
ENDBRANCH 145 152
ENDBRANCH 140 144
ENDBRANCH 120 140
ENDBRANCH 119 123
ENDBRANCH 103 119
ENDBRANCH 102 106
ENDBRANCH 82 102
ENDBRANCH 81 85
ENDBRANCH 65 81
ENDBRANCH 64 68
ENDBRANCH 41 64
ENDBRANCH 40 44
ENDBRANCH 24 40
ENDBRANCH 23 27
ENDBRANCH 1 23
TORSDOF 31
ENDMDL
MODEL 18
REMARK VINA RESULT:      -7.5     10.044     19.665
ROOT
ATOM      1  C1  SGN B   1      19.717  20.022  19.7910  0.00  0.00     0.000 C
ATOM      2  C2  SGN B   1      18.649  18.968  19.4570  0.00  0.00     0.000 C
ATOM      3  C3  SGN B   1      19.046  17.597  20.0170  0.00  0.00     0.000 C
ATOM      4  C4  SGN B   1      20.424  17.197  19.5020  0.00  0.00     0.000 C
ATOM      5  C5  SGN B   1      21.400  18.347  19.7410  0.00  0.00     0.000 C
ATOM      6  O5  SGN B   1      20.885  19.549  19.1350  0.00  0.00     0.000 O
ATOM      7   O  SGN B   1      18.078  16.615  19.6680  0.00  0.00     0.000 O
ATOM      9  HD  SGN B   1      18.354  16.875  18.8890  0.00  0.00     0.000 HD
ATOM      9   O  SGN B   1      20.862  16.036  20.1840  0.00  0.00     0.000 O
ATOM     11  HD  SGN B   1      21.138  16.296  19.4050  0.00  0.00     0.000 HD
ENDROOT
BRANCH 2 13
ATOM     11   N  SGN B   1      17.612  19.710  18.7150  0.00  0.00     0.000 N
ATOM     13  HD  SGN B   1      17.922  20.016  19.4640  0.00  0.00     0.000 HD
ATOM     13   S  SGN B   1      16.549  20.667  19.4510  0.00  0.00     0.000 S
ATOM     14   O  SGN B   1      16.809  20.706  20.8370  0.00  0.00     0.000 OA
ATOM     15   O  SGN B   1      16.460  21.887  18.7210  0.00  0.00     0.000 OA
ATOM     16   O  SGN B   1      15.258  19.849  19.1390  0.00  0.00     0.000 OA
ENDBRANCH 2 13
BRANCH 5 17
ATOM     17   C  SGN B   1      22.778  18.112  19.1730  0.00  0.00     0.000 C
ATOM     18   O  SGN B   1      22.700  17.466  17.8860  0.00  0.00     0.000 O
ATOM     19   S  SGN B   1      23.706  16.244  17.6530  0.00  0.00     0.000 S
ATOM     20   O  SGN B   1      23.599  15.934  16.2440  0.00  0.00     0.000 OA
ATOM     21   O  SGN B   1      24.996  16.772  18.0340  0.00  0.00     0.000 OA
ATOM     22   O  SGN B   1      23.224  15.189  18.5170  0.00  0.00     0.000 OA
ENDBRANCH 5 17
BRANCH 1 23
ATOM     23  O4  IDS B   2      20.039  20.925  20.7610  0.00  0.00     0.000 O
BRANCH 23 27
ATOM     24  C1  IDS B   2      23.128  19.734  23.2640  0.00  0.00     0.000 C
ATOM     25  C2  IDS B   2      21.712  19.296  23.6980  0.00  0.00     0.000 C
ATOM     26  C3  IDS B   2      20.703  19.521  22.5750  0.00  0.00     0.000 C
ATOM     27  C4  IDS B   2      20.688  20.950  22.0500  0.00  0.00     0.000 C
ATOM     28  C5  IDS B   2      22.120  21.520  22.0310  0.00  0.00     0.000 C
ATOM     29  O5  IDS B   2      23.082  20.476  22.0380  0.00  0.00     0.000 O
ATOM     30   O  IDS B   2      19.396  19.225  23.0530  0.00  0.00     0.000 O
ATOM     32  HD  IDS B   2      19.054  19.862  23.5290  0.00  0.00     0.000 HD
BRANCH 25 32
ATOM     32   O  IDS B   2      21.657  17.861  24.0690  0.00  0.00     0.000 O
ATOM     33   S  IDS B   2      21.068  17.359  25.5270  0.00  0.00     0.000 S
ATOM     34   O  IDS B   2      21.378  15.941  25.6220  0.00  0.00     0.000 OA
ATOM     35   O  IDS B   2      21.707  18.116  26.5940  0.00  0.00     0.000 OA
ATOM     36   O  IDS B   2      19.643  17.583  25.4700  0.00  0.00     0.000 OA
ENDBRANCH 25 32
BRANCH 28 37
ATOM     37   C  IDS B   2      22.488  22.510  20.9060  0.00  0.00     0.000 C
ATOM     38   O  IDS B   2      23.072  21.980  19.9900  0.00  0.00     0.000 OA
ATOM     39   O  IDS B   2      22.188  23.727  20.8430  0.00  0.00     0.000 OA
ENDBRANCH 28 37
BRANCH 24 40
ATOM     40  O4  SUS B   3      24.149  19.676  24.1450  0.00  0.00     0.000 O
BRANCH 40 44
ATOM     41  C1  SUS B   3      28.215  18.872  23.5350  0.00  0.00     0.000 C
ATOM     42  C2  SUS B   3      27.688  20.240  23.0590  0.00  0.00     0.000 C
ATOM     43  C3  SUS B   3      26.372  20.548  23.7700  0.00  0.00     0.000 C
ATOM     44  C4  SUS B   3      25.405  19.398  23.5360  0.00  0.00     0.000 C
ATOM     45  C5  SUS B   3      25.995  18.133  24.1270  0.00  0.00     0.000 C
ATOM     46  O5  SUS B   3      27.224  17.843  23.4310  0.00  0.00     0.000 O
BRANCH 42 49
ATOM     47   N  SUS B   3      27.944  21.016  21.8330  0.00  0.00     0.000 N
ATOM     49  HD  SUS B   3      27.863  20.592  21.0820  0.00  0.00     0.000 HD
ATOM     49   S  SUS B   3      29.374  21.738  21.8460  0.00  0.00     0.000 S
ATOM     50   O  SUS B   3      30.393  20.779  22.0210  0.00  0.00     0.000 OA
ATOM     51   O  SUS B   3      29.338  22.235  20.3780  0.00  0.00     0.000 OA
ATOM     52   O  SUS B   3      29.340  22.826  22.7410  0.00  0.00     0.000 OA
ENDBRANCH 42 49
BRANCH 43 53
ATOM     53   O  SUS B   3      25.823  21.790  23.1940  0.00  0.00     0.000 O
ATOM     54   S  SUS B   3      25.535  23.034  24.2290  0.00  0.00     0.000 S
ATOM     55   O  SUS B   3      26.826  23.560  24.6500  0.00  0.00     0.000 OA
ATOM     56   O  SUS B   3      24.748  23.969  23.4460  0.00  0.00     0.000 OA
ATOM     57   O  SUS B   3      24.798  22.467  25.3630  0.00  0.00     0.000 OA
ENDBRANCH 43 53
BRANCH 45 58
ATOM     58   C  SUS B   3      25.044  16.961  24.0210  0.00  0.00     0.000 C
ATOM     59   S  SUS B   3      24.128  15.230  22.3630  0.00  0.00     0.000 S
ATOM     60   O  SUS B   3      25.195  16.340  22.7330  0.00  0.00     0.000 O
ATOM     61   O  SUS B   3      22.937  15.962  21.9790  0.00  0.00     0.000 OA
ATOM     62   O  SUS B   3      24.777  14.598  21.2450  0.00  0.00     0.000 OA
ATOM     63   O  SUS B   3      23.999  14.424  23.5250  0.00  0.00     0.000 OA
ENDBRANCH 45 58
BRANCH 41 64
ATOM     64  O4  IDS B   4      28.854  18.917  24.7490  0.00  0.00     0.000 O
BRANCH 64 68
ATOM     65  C1  IDS B   4      31.860  19.167  26.7930  0.00  0.00     0.000 C
ATOM     66  C2  IDS B   4      31.818  19.806  25.3990  0.00  0.00     0.000 C
ATOM     67  C3  IDS B   4      31.249  18.908  24.3140  0.00  0.00     0.000 C
ATOM     68  C4  IDS B   4      30.049  18.106  24.7800  0.00  0.00     0.000 C
ATOM     69  C5  IDS B   4      30.366  17.538  26.1700  0.00  0.00     0.000 C
ATOM     70  O5  IDS B   4      30.587  18.617  27.0810  0.00  0.00     0.000 O
ATOM     71   O  IDS B   4      32.282  18.032  23.9110  0.00  0.00     0.000 O
ATOM     73  HD  IDS B   4      31.950  18.739  24.2860  0.00  0.00     0.000 HD
BRANCH 66 73
ATOM     73   O  IDS B   4      30.932  20.978  25.4420  0.00  0.00     0.000 O
ATOM     74   S  IDS B   4      31.614  22.442  25.5240  0.00  0.00     0.000 S
ATOM     75   O  IDS B   4      32.465  22.433  26.6950  0.00  0.00     0.000 OA
ATOM     76   O  IDS B   4      30.461  23.299  25.6420  0.00  0.00     0.000 OA
ATOM     77   O  IDS B   4      32.344  22.596  24.2880  0.00  0.00     0.000 OA
ENDBRANCH 66 73
BRANCH 69 78
ATOM     78   C  IDS B   4      29.349  16.528  26.6840  0.00  0.00     0.000 C
ATOM     79   O  IDS B   4      28.184  16.614  26.2990  0.00  0.00     0.000 OA
ATOM     80   O  IDS B   4      29.751  15.586  27.3920  0.00  0.00     0.000 OA
ENDBRANCH 69 78
BRANCH 65 81
ATOM     81  O4  SGN B   5      32.925  18.322  26.8720  0.00  0.00     0.000 O
BRANCH 81 85
ATOM     82  C1  SGN B   5      35.669  16.622  29.5590  0.00  0.00     0.000 C
ATOM     83  C2  SGN B   5      34.185  16.573  29.9530  0.00  0.00     0.000 C
ATOM     84  C3  SGN B   5      33.315  16.793  28.7070  0.00  0.00     0.000 C
ATOM     85  C4  SGN B   5      33.714  18.099  28.0430  0.00  0.00     0.000 C
ATOM     86  C5  SGN B   5      35.195  18.020  27.6790  0.00  0.00     0.000 C
ATOM     87  O5  SGN B   5      35.958  17.832  28.8860  0.00  0.00     0.000 O
ATOM     88   O  SGN B   5      31.952  16.806  29.0700  0.00  0.00     0.000 O
ATOM     90  HD  SGN B   5      32.368  16.141  28.7040  0.00  0.00     0.000 HD
BRANCH 83 92
ATOM     90   N  SGN B   5      34.663  15.516  30.8660  0.00  0.00     0.000 N
ATOM     92  HD  SGN B   5      35.527  15.521  30.9200  0.00  0.00     0.000 HD
ATOM     92   S  SGN B   5      33.897  15.321  32.2550  0.00  0.00     0.000 S
ATOM     93   O  SGN B   5      34.595  14.247  32.8960  0.00  0.00     0.000 OA
ATOM     94   O  SGN B   5      33.860  16.608  32.8590  0.00  0.00     0.000 OA
ATOM     95   O  SGN B   5      32.480  14.963  31.8660  0.00  0.00     0.000 OA
ENDBRANCH 83 92
BRANCH 86 96
ATOM     96   C  SGN B   5      35.733  19.258  26.9920  0.00  0.00     0.000 C
ATOM     97   O  SGN B   5      36.575  18.898  25.8950  0.00  0.00     0.000 O
ATOM     98   S  SGN B   5      36.251  19.607  24.4940  0.00  0.00     0.000 S
ATOM     99   O  SGN B   5      37.367  19.208  23.6700  0.00  0.00     0.000 OA
ATOM    100   O  SGN B   5      34.990  19.128  24.0550  0.00  0.00     0.000 OA
ATOM    101   O  SGN B   5      36.242  21.002  24.7960  0.00  0.00     0.000 OA
ENDBRANCH 86 96
BRANCH 82 102
ATOM    102  O4  IDS B   6      36.045  15.554  28.8000  0.00  0.00     0.000 O
BRANCH 102 106
ATOM    103  C1  IDS B   6      38.854  13.304  28.2460  0.00  0.00     0.000 C
ATOM    104  C2  IDS B   6      38.788  14.184  29.5040  0.00  0.00     0.000 C
ATOM    105  C3  IDS B   6      38.436  15.638  29.2540  0.00  0.00     0.000 C
ATOM    106  C4  IDS B   6      37.347  15.806  28.2110  0.00  0.00     0.000 C
ATOM    107  C5  IDS B   6      37.605  14.859  27.0350  0.00  0.00     0.000 C
ATOM    108  O5  IDS B   6      37.695  13.497  27.4580  0.00  0.00     0.000 O
ATOM    109   O  IDS B   6      39.618  16.316  28.8630  0.00  0.00     0.000 O
ATOM    111  HD  IDS B   6      40.128  15.687  28.5550  0.00  0.00     0.000 HD
BRANCH 104 111
ATOM    111   O  IDS B   6      37.729  13.675  30.3900  0.00  0.00     0.000 O
ATOM    112   S  IDS B   6      38.115  13.336  31.9060  0.00  0.00     0.000 S
ATOM    113   O  IDS B   6      39.169  12.339  31.8020  0.00  0.00     0.000 OA
ATOM    114   O  IDS B   6      38.512  14.580  32.5740  0.00  0.00     0.000 OA
ATOM    115   O  IDS B   6      36.846  12.804  32.3560  0.00  0.00     0.000 OA
ENDBRANCH 104 111
BRANCH 107 116
ATOM    116   C  IDS B   6      36.487  15.010  26.0110  0.00  0.00     0.000 C
ATOM    117   O  IDS B   6      35.901  14.005  25.6970  0.00  0.00     0.000 OA
ATOM    118   O  IDS B   6      36.210  16.097  25.5290  0.00  0.00     0.000 OA
ENDBRANCH 107 116
BRANCH 103 119
ATOM    119  O4  SGN B   7      40.094  13.545  27.7500  0.00  0.00     0.000 O
BRANCH 119 123
ATOM    120  C1  SGN B   7      42.886  11.485  25.4160  0.00  0.00     0.000 C
ATOM    121  C2  SGN B   7      41.571  11.915  24.7400  0.00  0.00     0.000 C
ATOM    122  C3  SGN B   7      40.857  12.981  25.5820  0.00  0.00     0.000 C
ATOM    123  C4  SGN B   7      40.682  12.478  27.0060  0.00  0.00     0.000 C
ATOM    124  C5  SGN B   7      42.046  12.069  27.5870  0.00  0.00     0.000 C
ATOM    125  O5  SGN B   7      42.680  11.064  26.7640  0.00  0.00     0.000 O
ATOM    126   O  SGN B   7      39.595  13.284  24.9770  0.00  0.00     0.000 O
ATOM    128  HD  SGN B   7      40.363  12.889  24.9170  0.00  0.00     0.000 HD
BRANCH 121 130
ATOM    128   N  SGN B   7      40.997  11.281  23.5510  0.00  0.00     0.000 N
ATOM    130  HD  SGN B   7      40.681  12.043  23.2880  0.00  0.00     0.000 HD
ATOM    130   S  SGN B   7      41.618  11.493  22.0800  0.00  0.00     0.000 S
ATOM    131   O  SGN B   7      43.009  11.224  22.2210  0.00  0.00     0.000 OA
ATOM    132   O  SGN B   7      40.835  10.757  21.1540  0.00  0.00     0.000 OA
ATOM    133   O  SGN B   7      41.231  12.989  21.8240  0.00  0.00     0.000 OA
ENDBRANCH 121 130
BRANCH 124 134
ATOM    134   C  SGN B   7      41.963  11.450  28.9510  0.00  0.00     0.000 C
ATOM    135   O  SGN B   7      41.827  10.026  28.8000  0.00  0.00     0.000 O
ATOM    136   S  SGN B   7      41.878   9.175  30.1200  0.00  0.00     0.000 S
ATOM    137   O  SGN B   7      41.618   7.809  29.7320  0.00  0.00     0.000 OA
ATOM    138   O  SGN B   7      40.845   9.727  30.9660  0.00  0.00     0.000 OA
ATOM    139   O  SGN B   7      43.234   9.409  30.5910  0.00  0.00     0.000 OA
ENDBRANCH 124 134
BRANCH 120 140
ATOM    140  O4  IDS B   8      43.997  12.209  25.5910  0.00  0.00     0.000 O
BRANCH 140 144
ATOM    141  C1  IDS B   8      46.074  15.046  26.3670  0.00  0.00     0.000 C
ATOM    142  C2  IDS B   8      44.721  15.225  25.6220  0.00  0.00     0.000 C
ATOM    143  C3  IDS B   8      44.552  14.259  24.4340  0.00  0.00     0.000 C
ATOM    144  C4  IDS B   8      44.998  12.840  24.7830  0.00  0.00     0.000 C
ATOM    145  C5  IDS B   8      46.338  12.875  25.5330  0.00  0.00     0.000 C
ATOM    146  O5  IDS B   8      46.262  13.678  26.7090  0.00  0.00     0.000 O
BRANCH 142 147
ATOM    147   O  IDS B   8      43.599  14.966  26.5620  0.00  0.00     0.000 O
ATOM    148   S  IDS B   8      42.771  16.189  27.2330  0.00  0.00     0.000 S
ATOM    149   O  IDS B   8      43.554  17.392  27.0650  0.00  0.00     0.000 OA
ATOM    150   O  IDS B   8      41.507  16.237  26.5230  0.00  0.00     0.000 OA
ATOM    151   O  IDS B   8      42.625  15.829  28.6310  0.00  0.00     0.000 OA
ENDBRANCH 142 147
BRANCH 145 152
ATOM    152   C  IDS B   8      46.784  11.502  25.9940  0.00  0.00     0.000 C
ATOM    153   O  IDS B   8      46.988  11.301  27.1860  0.00  0.00     0.000 OA
ATOM    154   O  IDS B   8      46.916  10.607  25.1780  0.00  0.00     0.000 OA
ENDBRANCH 145 152
ENDBRANCH 140 144
ENDBRANCH 120 140
ENDBRANCH 119 123
ENDBRANCH 103 119
ENDBRANCH 102 106
ENDBRANCH 82 102
ENDBRANCH 81 85
ENDBRANCH 65 81
ENDBRANCH 64 68
ENDBRANCH 41 64
ENDBRANCH 40 44
ENDBRANCH 24 40
ENDBRANCH 23 27
ENDBRANCH 1 23
TORSDOF 31
ENDMDL
MODEL 19
REMARK VINA RESULT:      -7.4      9.218     18.500
ROOT
ATOM      1  C1  SGN B   1      28.015   4.934  38.8640  0.00  0.00     0.000 C
ATOM      2  C2  SGN B   1      29.179   4.957  37.8590  0.00  0.00     0.000 C
ATOM      3  C3  SGN B   1      28.746   5.614  36.5440  0.00  0.00     0.000 C
ATOM      4  C4  SGN B   1      27.519   4.904  35.9800  0.00  0.00     0.000 C
ATOM      5  C5  SGN B   1      26.460   4.792  37.0750  0.00  0.00     0.000 C
ATOM      6  O5  SGN B   1      27.026   4.137  38.2270  0.00  0.00     0.000 O
ATOM      7   O  SGN B   1      29.811   5.593  35.6010  0.00  0.00     0.000 O
ATOM      9  HD  SGN B   1      29.683   4.748  35.7400  0.00  0.00     0.000 HD
ATOM      9   O  SGN B   1      27.011   5.642  34.8830  0.00  0.00     0.000 O
ATOM     11  HD  SGN B   1      26.884   4.797  35.0230  0.00  0.00     0.000 HD
ENDROOT
BRANCH 2 13
ATOM     11   N  SGN B   1      30.204   4.299  38.6900  0.00  0.00     0.000 N
ATOM     13  HD  SGN B   1      29.830   5.034  38.9540  0.00  0.00     0.000 HD
ATOM     13   S  SGN B   1      31.152   5.121  39.6970  0.00  0.00     0.000 S
ATOM     14   O  SGN B   1      30.808   6.489  39.6800  0.00  0.00     0.000 OA
ATOM     15   O  SGN B   1      31.199   4.426  40.9400  0.00  0.00     0.000 OA
ATOM     16   O  SGN B   1      32.513   4.869  38.9780  0.00  0.00     0.000 OA
ENDBRANCH 2 13
BRANCH 5 17
ATOM     17   C  SGN B   1      25.237   4.009  36.6680  0.00  0.00     0.000 C
ATOM     18   O  SGN B   1      24.650   3.345  37.8050  0.00  0.00     0.000 O
ATOM     19   S  SGN B   1      24.225   1.819  37.5830  0.00  0.00     0.000 S
ATOM     20   O  SGN B   1      23.465   1.466  38.7630  0.00  0.00     0.000 OA
ATOM     21   O  SGN B   1      23.436   1.845  36.3730  0.00  0.00     0.000 OA
ATOM     22   O  SGN B   1      25.471   1.095  37.4570  0.00  0.00     0.000 OA
ENDBRANCH 5 17
BRANCH 1 23
ATOM     23  O4  IDS B   2      27.463   5.692  39.8540  0.00  0.00     0.000 O
BRANCH 23 27
ATOM     24  C1  IDS B   2      25.192   9.032  38.8960  0.00  0.00     0.000 C
ATOM     25  C2  IDS B   2      26.720   9.198  38.7440  0.00  0.00     0.000 C
ATOM     26  C3  IDS B   2      27.428   7.849  38.8290  0.00  0.00     0.000 C
ATOM     27  C4  IDS B   2      27.094   7.066  40.0920  0.00  0.00     0.000 C
ATOM     28  C5  IDS B   2      25.611   7.273  40.4640  0.00  0.00     0.000 C
ATOM     29  O5  IDS B   2      24.862   7.709  39.3390  0.00  0.00     0.000 O
ATOM     30   O  IDS B   2      28.835   8.055  38.8120  0.00  0.00     0.000 O
ATOM     32  HD  IDS B   2      29.153   8.304  39.5780  0.00  0.00     0.000 HD
BRANCH 25 32
ATOM     32   O  IDS B   2      27.092   9.818  37.4480  0.00  0.00     0.000 O
ATOM     33   S  IDS B   2      27.899  11.255  37.3690  0.00  0.00     0.000 S
ATOM     34   O  IDS B   2      27.886  11.650  35.9700  0.00  0.00     0.000 OA
ATOM     35   O  IDS B   2      27.224  12.237  38.2060  0.00  0.00     0.000 OA
ATOM     36   O  IDS B   2      29.241  10.974  37.8240  0.00  0.00     0.000 OA
ENDBRANCH 25 32
BRANCH 28 37
ATOM     37   C  IDS B   2      24.862   6.095  41.1190  0.00  0.00     0.000 C
ATOM     38   O  IDS B   2      24.171   5.487  40.3360  0.00  0.00     0.000 OA
ATOM     39   O  IDS B   2      24.959   5.706  42.3090  0.00  0.00     0.000 OA
ENDBRANCH 28 37
BRANCH 24 40
ATOM     40  O4  SUS B   3      24.395  10.121  38.9150  0.00  0.00     0.000 O
BRANCH 40 44
ATOM     41  C1  SUS B   3      20.495  10.637  37.4790  0.00  0.00     0.000 C
ATOM     42  C2  SUS B   3      20.656   9.949  38.8490  0.00  0.00     0.000 C
ATOM     43  C3  SUS B   3      22.036  10.275  39.4160  0.00  0.00     0.000 C
ATOM     44  C4  SUS B   3      23.092   9.877  38.3970  0.00  0.00     0.000 C
ATOM     45  C5  SUS B   3      22.882  10.684  37.1320  0.00  0.00     0.000 C
ATOM     46  O5  SUS B   3      21.586  10.352  36.5960  0.00  0.00     0.000 O
BRANCH 42 49
ATOM     47   N  SUS B   3      19.511  10.331  39.6940  0.00  0.00     0.000 N
ATOM     49  HD  SUS B   3      19.698  10.692  40.4590  0.00  0.00     0.000 HD
ATOM     49   S  SUS B   3      18.501   9.114  39.9520  0.00  0.00     0.000 S
ATOM     50   O  SUS B   3      19.190   8.037  40.5460  0.00  0.00     0.000 OA
ATOM     51   O  SUS B   3      17.613   9.837  40.9970  0.00  0.00     0.000 OA
ATOM     52   O  SUS B   3      17.773   8.854  38.7740  0.00  0.00     0.000 OA
ENDBRANCH 42 49
BRANCH 43 53
ATOM     53   O  SUS B   3      22.215   9.493  40.6550  0.00  0.00     0.000 O
ATOM     54   S  SUS B   3      22.298  10.333  42.0650  0.00  0.00     0.000 S
ATOM     55   O  SUS B   3      20.966  10.851  42.3440  0.00  0.00     0.000 OA
ATOM     56   O  SUS B   3      22.759   9.352  43.0320  0.00  0.00     0.000 OA
ATOM     57   O  SUS B   3      23.256  11.421  41.8450  0.00  0.00     0.000 OA
ENDBRANCH 43 53
BRANCH 45 58
ATOM     58   C  SUS B   3      23.958  10.416  36.1030  0.00  0.00     0.000 C
ATOM     59   S  SUS B   3      24.809   8.629  34.4700  0.00  0.00     0.000 S
ATOM     60   O  SUS B   3      23.675   9.179  35.4290  0.00  0.00     0.000 O
ATOM     61   O  SUS B   3      25.798   8.037  35.3510  0.00  0.00     0.000 OA
ATOM     62   O  SUS B   3      24.073   7.647  33.7210  0.00  0.00     0.000 OA
ATOM     63   O  SUS B   3      25.254   9.753  33.7250  0.00  0.00     0.000 OA
ENDBRANCH 45 58
BRANCH 41 64
ATOM     64  O4  IDS B   4      20.173  11.970  37.5620  0.00  0.00     0.000 O
BRANCH 64 68
ATOM     65  C1  IDS B   4      17.802  14.418  36.2760  0.00  0.00     0.000 C
ATOM     66  C2  IDS B   4      17.572  12.920  36.0360  0.00  0.00     0.000 C
ATOM     67  C3  IDS B   4      18.801  12.165  35.5610  0.00  0.00     0.000 C
ATOM     68  C4  IDS B   4      20.071  12.600  36.2670  0.00  0.00     0.000 C
ATOM     69  C5  IDS B   4      20.080  14.134  36.3310  0.00  0.00     0.000 C
ATOM     70  O5  IDS B   4      18.951  14.579  37.0870  0.00  0.00     0.000 O
ATOM     71   O  IDS B   4      18.924  12.395  34.1720  0.00  0.00     0.000 O
ATOM     73  HD  IDS B   4      18.512  12.375  34.9340  0.00  0.00     0.000 HD
BRANCH 66 73
ATOM     73   O  IDS B   4      17.194  12.291  37.3090  0.00  0.00     0.000 O
ATOM     74   S  IDS B   4      15.679  11.744  37.4640  0.00  0.00     0.000 S
ATOM     75   O  IDS B   4      14.808  12.869  37.2010  0.00  0.00     0.000 OA
ATOM     76   O  IDS B   4      15.664  11.297  38.8340  0.00  0.00     0.000 OA
ATOM     77   O  IDS B   4      15.552  10.683  36.4920  0.00  0.00     0.000 OA
ENDBRANCH 66 73
BRANCH 69 78
ATOM     78   C  IDS B   4      21.392  14.736  36.8150  0.00  0.00     0.000 C
ATOM     79   O  IDS B   4      22.447  14.192  36.4920  0.00  0.00     0.000 OA
ATOM     80   O  IDS B   4      21.360  15.817  37.4320  0.00  0.00     0.000 OA
ENDBRANCH 69 78
BRANCH 65 81
ATOM     81  O4  SGN B   5      17.797  15.074  35.0820  0.00  0.00     0.000 O
BRANCH 81 85
ATOM     82  C1  SGN B   5      16.732  18.672  33.1970  0.00  0.00     0.000 C
ATOM     83  C2  SGN B   5      17.852  18.739  34.2450  0.00  0.00     0.000 C
ATOM     84  C3  SGN B   5      18.421  17.332  34.4790  0.00  0.00     0.000 C
ATOM     85  C4  SGN B   5      17.293  16.394  34.8690  0.00  0.00     0.000 C
ATOM     86  C5  SGN B   5      16.259  16.394  33.7460  0.00  0.00     0.000 C
ATOM     87  O5  SGN B   5      15.749  17.732  33.5870  0.00  0.00     0.000 O
ATOM     88   O  SGN B   5      19.412  17.377  35.4820  0.00  0.00     0.000 O
ATOM     90  HD  SGN B   5      19.562  17.334  34.6300  0.00  0.00     0.000 HD
BRANCH 83 92
ATOM     90   N  SGN B   5      17.660  20.169  33.9360  0.00  0.00     0.000 N
ATOM     92  HD  SGN B   5      16.843  20.412  34.0850  0.00  0.00     0.000 HD
ATOM     92   S  SGN B   5      18.775  21.201  34.4330  0.00  0.00     0.000 S
ATOM     93   O  SGN B   5      18.299  22.477  33.9890  0.00  0.00     0.000 OA
ATOM     94   O  SGN B   5      18.944  20.947  35.8220  0.00  0.00     0.000 OA
ATOM     95   O  SGN B   5      20.044  20.763  33.7350  0.00  0.00     0.000 OA
ENDBRANCH 83 92
BRANCH 86 96
ATOM     96   C  SGN B   5      15.073  15.485  33.9940  0.00  0.00     0.000 C
ATOM     97   O  SGN B   5      14.781  14.711  32.8280  0.00  0.00     0.000 O
ATOM     98   S  SGN B   5      14.634  13.130  33.0500  0.00  0.00     0.000 S
ATOM     99   O  SGN B   5      14.150  12.673  31.7690  0.00  0.00     0.000 OA
ATOM    100   O  SGN B   5      15.912  12.630  33.4120  0.00  0.00     0.000 OA
ATOM    101   O  SGN B   5      13.671  13.005  34.0950  0.00  0.00     0.000 OA
ENDBRANCH 86 96
BRANCH 82 102
ATOM    102  O4  IDS B   6      17.198  18.381  31.9490  0.00  0.00     0.000 O
BRANCH 102 106
ATOM    103  C1  IDS B   6      17.916  19.095  28.4520  0.00  0.00     0.000 C
ATOM    104  C2  IDS B   6      18.228  20.129  29.5450  0.00  0.00     0.000 C
ATOM    105  C3  IDS B   6      17.111  20.367  30.5420  0.00  0.00     0.000 C
ATOM    106  C4  IDS B   6      16.410  19.085  30.9550  0.00  0.00     0.000 C
ATOM    107  C5  IDS B   6      16.175  18.204  29.7240  0.00  0.00     0.000 C
ATOM    108  O5  IDS B   6      17.392  17.917  29.0340  0.00  0.00     0.000 O
ATOM    109   O  IDS B   6      16.192  21.280  29.9660  0.00  0.00     0.000 O
ATOM    111  HD  IDS B   6      16.324  21.199  29.1140  0.00  0.00     0.000 HD
BRANCH 104 111
ATOM    111   O  IDS B   6      19.367  19.652  30.3450  0.00  0.00     0.000 O
ATOM    112   S  IDS B   6      20.763  20.424  30.2020  0.00  0.00     0.000 S
ATOM    113   O  IDS B   6      21.095  20.321  28.7900  0.00  0.00     0.000 OA
ATOM    114   O  IDS B   6      20.587  21.796  30.6920  0.00  0.00     0.000 OA
ATOM    115   O  IDS B   6      21.579  19.592  31.0590  0.00  0.00     0.000 OA
ENDBRANCH 104 111
BRANCH 107 116
ATOM    116   C  IDS B   6      15.505  16.906  30.1540  0.00  0.00     0.000 C
ATOM    117   O  IDS B   6      14.377  16.989  30.5690  0.00  0.00     0.000 OA
ATOM    118   O  IDS B   6      16.090  15.836  30.0870  0.00  0.00     0.000 OA
ENDBRANCH 107 116
BRANCH 103 119
ATOM    119  O4  SGN B   7      17.211  19.803  27.5320  0.00  0.00     0.000 O
BRANCH 119 123
ATOM    120  C1  SGN B   7      16.364  19.362  23.4610  0.00  0.00     0.000 C
ATOM    121  C2  SGN B   7      15.320  18.842  24.4670  0.00  0.00     0.000 C
ATOM    122  C3  SGN B   7      15.578  19.428  25.8610  0.00  0.00     0.000 C
ATOM    123  C4  SGN B   7      17.017  19.160  26.2720  0.00  0.00     0.000 C
ATOM    124  C5  SGN B   7      17.977  19.708  25.2040  0.00  0.00     0.000 C
ATOM    125  O5  SGN B   7      17.698  19.129  23.9100  0.00  0.00     0.000 O
ATOM    126   O  SGN B   7      14.653  18.849  26.7880  0.00  0.00     0.000 O
ATOM    128  HD  SGN B   7      14.896  18.962  25.9640  0.00  0.00     0.000 HD
BRANCH 121 130
ATOM    128   N  SGN B   7      14.292  19.080  23.4510  0.00  0.00     0.000 N
ATOM    130  HD  SGN B   7      14.601  18.426  22.9740  0.00  0.00     0.000 HD
ATOM    130   S  SGN B   7      13.036  18.091  23.2520  0.00  0.00     0.000 S
ATOM    131   O  SGN B   7      12.484  17.925  24.5530  0.00  0.00     0.000 OA
ATOM    132   O  SGN B   7      12.237  18.593  22.1920  0.00  0.00     0.000 OA
ATOM    133   O  SGN B   7      13.757  16.840  22.6460  0.00  0.00     0.000 OA
ENDBRANCH 121 130
BRANCH 124 134
ATOM    134   C  SGN B   7      19.420  19.389  25.4640  0.00  0.00     0.000 C
ATOM    135   O  SGN B   7      19.596  17.965  25.3800  0.00  0.00     0.000 O
ATOM    136   S  SGN B   7      21.073  17.436  25.4700  0.00  0.00     0.000 S
ATOM    137   O  SGN B   7      20.988  15.995  25.4680  0.00  0.00     0.000 OA
ATOM    138   O  SGN B   7      21.590  17.969  26.7100  0.00  0.00     0.000 OA
ATOM    139   O  SGN B   7      21.680  17.995  24.2730  0.00  0.00     0.000 OA
ENDBRANCH 124 134
BRANCH 120 140
ATOM    140  O4  IDS B   8      16.514  20.609  23.0000  0.00  0.00     0.000 O
BRANCH 140 144
ATOM    141  C1  IDS B   8      18.954  21.726  20.6000  0.00  0.00     0.000 C
ATOM    142  C2  IDS B   8      18.476  22.660  21.7490  0.00  0.00     0.000 C
ATOM    143  C3  IDS B   8      16.943  22.712  21.8860  0.00  0.00     0.000 C
ATOM    144  C4  IDS B   8      16.311  21.326  21.7760  0.00  0.00     0.000 C
ATOM    145  C5  IDS B   8      16.930  20.553  20.6020  0.00  0.00     0.000 C
ATOM    146  O5  IDS B   8      18.346  20.447  20.7290  0.00  0.00     0.000 O
BRANCH 142 147
ATOM    147   O  IDS B   8      19.017  22.169  23.0440  0.00  0.00     0.000 O
ATOM    148   S  IDS B   8      19.483  23.206  24.2010  0.00  0.00     0.000 S
ATOM    149   O  IDS B   8      19.634  24.507  23.5900  0.00  0.00     0.000 OA
ATOM    150   O  IDS B   8      18.429  23.172  25.1980  0.00  0.00     0.000 OA
ATOM    151   O  IDS B   8      20.746  22.688  24.6910  0.00  0.00     0.000 OA
ENDBRANCH 142 147
BRANCH 145 152
ATOM    152   C  IDS B   8      16.413  19.132  20.5020  0.00  0.00     0.000 C
ATOM    153   O  IDS B   8      15.206  18.931  20.4280  0.00  0.00     0.000 OA
ATOM    154   O  IDS B   8      17.203  18.205  20.4750  0.00  0.00     0.000 OA
ENDBRANCH 145 152
ENDBRANCH 140 144
ENDBRANCH 120 140
ENDBRANCH 119 123
ENDBRANCH 103 119
ENDBRANCH 102 106
ENDBRANCH 82 102
ENDBRANCH 81 85
ENDBRANCH 65 81
ENDBRANCH 64 68
ENDBRANCH 41 64
ENDBRANCH 40 44
ENDBRANCH 24 40
ENDBRANCH 23 27
ENDBRANCH 1 23
TORSDOF 31
ENDMDL
MODEL 20
REMARK VINA RESULT:      -7.4      3.380      5.693
ROOT
ATOM      1  C1  SGN B   1      28.448  16.380  12.3770  0.00  0.00     0.000 C
ATOM      2  C2  SGN B   1      29.797  15.664  12.1930  0.00  0.00     0.000 C
ATOM      3  C3  SGN B   1      30.948  16.676  12.1600  0.00  0.00     0.000 C
ATOM      4  C4  SGN B   1      30.702  17.717  11.0730  0.00  0.00     0.000 C
ATOM      5  C5  SGN B   1      29.292  18.282  11.2330  0.00  0.00     0.000 C
ATOM      6  O5  SGN B   1      28.337  17.204  11.2240  0.00  0.00     0.000 O
ATOM      7   O  SGN B   1      32.189  16.014  11.9450  0.00  0.00     0.000 O
ATOM      9  HD  SGN B   1      31.754  15.810  11.2250  0.00  0.00     0.000 HD
ATOM      9   O  SGN B   1      31.660  18.753  11.1880  0.00  0.00     0.000 O
ATOM     11  HD  SGN B   1      31.225  18.549  10.4680  0.00  0.00     0.000 HD
ENDROOT
BRANCH 2 13
ATOM     11   N  SGN B   1      29.440  14.234  12.1340  0.00  0.00     0.000 N
ATOM     13  HD  SGN B   1      29.137  14.737  12.7710  0.00  0.00     0.000 HD
ATOM     13   S  SGN B   1      29.092  13.380  13.4530  0.00  0.00     0.000 S
ATOM     14   O  SGN B   1      29.134  14.209  14.5930  0.00  0.00     0.000 OA
ATOM     15   O  SGN B   1      27.924  12.606  13.1930  0.00  0.00     0.000 OA
ATOM     16   O  SGN B   1      30.308  12.405  13.4150  0.00  0.00     0.000 OA
ENDBRANCH 2 13
BRANCH 5 17
ATOM     17   C  SGN B   1      28.890  19.247  10.1450  0.00  0.00     0.000 C
ATOM     18   O  SGN B   1      29.266  18.745   8.8470  0.00  0.00     0.000 O
ATOM     19   S  SGN B   1      29.962  19.796   7.8630  0.00  0.00     0.000 S
ATOM     20   O  SGN B   1      30.020  19.128   6.5800  0.00  0.00     0.000 OA
ATOM     21   O  SGN B   1      29.076  20.936   7.8810  0.00  0.00     0.000 OA
ATOM     22   O  SGN B   1      31.263  20.052   8.4420  0.00  0.00     0.000 OA
ENDBRANCH 5 17
BRANCH 1 23
ATOM     23  O4  IDS B   2      27.609  16.809  13.3620  0.00  0.00     0.000 O
BRANCH 23 27
ATOM     24  C1  IDS B   2      24.471  17.472  15.9970  0.00  0.00     0.000 C
ATOM     25  C2  IDS B   2      24.568  16.042  15.4220  0.00  0.00     0.000 C
ATOM     26  C3  IDS B   2      25.904  15.827  14.7150  0.00  0.00     0.000 C
ATOM     27  C4  IDS B   2      26.193  16.862  13.6360  0.00  0.00     0.000 C
ATOM     28  C5  IDS B   2      25.682  18.246  14.0830  0.00  0.00     0.000 C
ATOM     29  O5  IDS B   2      25.528  18.300  15.4940  0.00  0.00     0.000 O
ATOM     30   O  IDS B   2      25.904  14.547  14.0940  0.00  0.00     0.000 O
ATOM     32  HD  IDS B   2      25.471  14.531  13.3450  0.00  0.00     0.000 HD
BRANCH 25 32
ATOM     32   O  IDS B   2      24.446  15.004  16.4750  0.00  0.00     0.000 O
ATOM     33   S  IDS B   2      23.168  13.962  16.5280  0.00  0.00     0.000 S
ATOM     34   O  IDS B   2      23.272  13.259  17.7970  0.00  0.00     0.000 OA
ATOM     35   O  IDS B   2      21.925  14.714  16.4370  0.00  0.00     0.000 OA
ATOM     36   O  IDS B   2      23.351  13.063  15.4120  0.00  0.00     0.000 OA
ENDBRANCH 25 32
BRANCH 28 37
ATOM     37   C  IDS B   2      26.480  19.488  13.6350  0.00  0.00     0.000 C
ATOM     38   O  IDS B   2      26.270  19.788  12.4830  0.00  0.00     0.000 OA
ATOM     39   O  IDS B   2      27.229  20.202  14.3460  0.00  0.00     0.000 OA
ENDBRANCH 28 37
BRANCH 24 40
ATOM     40  O4  SUS B   3      23.335  17.879  16.6020  0.00  0.00     0.000 O
BRANCH 40 44
ATOM     41  C1  SUS B   3      22.751  20.595  19.7360  0.00  0.00     0.000 C
ATOM     42  C2  SUS B   3      23.210  21.170  18.3810  0.00  0.00     0.000 C
ATOM     43  C3  SUS B   3      22.908  20.159  17.2770  0.00  0.00     0.000 C
ATOM     44  C4  SUS B   3      23.555  18.831  17.6360  0.00  0.00     0.000 C
ATOM     45  C5  SUS B   3      22.956  18.329  18.9340  0.00  0.00     0.000 C
ATOM     46  O5  SUS B   3      23.268  19.281  19.9720  0.00  0.00     0.000 O
BRANCH 42 49
ATOM     47   N  SUS B   3      22.590  22.505  18.3250  0.00  0.00     0.000 N
ATOM     49  HD  SUS B   3      22.034  22.647  17.6760  0.00  0.00     0.000 HD
ATOM     49   S  SUS B   3      23.670  23.688  18.3230  0.00  0.00     0.000 S
ATOM     50   O  SUS B   3      24.553  23.530  17.2360  0.00  0.00     0.000 OA
ATOM     51   O  SUS B   3      22.671  24.843  18.0530  0.00  0.00     0.000 OA
ATOM     52   O  SUS B   3      24.233  23.809  19.6090  0.00  0.00     0.000 OA
ENDBRANCH 42 49
BRANCH 43 53
ATOM     53   O  SUS B   3      23.483  20.674  16.0190  0.00  0.00     0.000 O
ATOM     54   S  SUS B   3      22.430  21.234  14.8880  0.00  0.00     0.000 S
ATOM     55   O  SUS B   3      21.880  22.487  15.3860  0.00  0.00     0.000 OA
ATOM     56   O  SUS B   3      23.244  21.384  13.6950  0.00  0.00     0.000 OA
ATOM     57   O  SUS B   3      21.387  20.213  14.7510  0.00  0.00     0.000 OA
ENDBRANCH 43 53
BRANCH 45 58
ATOM     58   C  SUS B   3      23.480  16.959  19.3070  0.00  0.00     0.000 C
ATOM     59   S  SUS B   3      24.462  15.621  21.2650  0.00  0.00     0.000 S
ATOM     60   O  SUS B   3      23.710  16.906  20.7250  0.00  0.00     0.000 O
ATOM     61   O  SUS B   3      25.860  15.839  20.9470  0.00  0.00     0.000 OA
ATOM     62   O  SUS B   3      24.189  15.724  22.6730  0.00  0.00     0.000 OA
ATOM     63   O  SUS B   3      23.852  14.520  20.6070  0.00  0.00     0.000 OA
ENDBRANCH 45 58
BRANCH 41 64
ATOM     64  O4  IDS B   4      21.401  20.717  19.9600  0.00  0.00     0.000 O
BRANCH 64 68
ATOM     65  C1  IDS B   4      18.530  21.185  22.1540  0.00  0.00     0.000 C
ATOM     66  C2  IDS B   4      19.895  21.776  22.5310  0.00  0.00     0.000 C
ATOM     67  C3  IDS B   4      21.061  20.816  22.3690  0.00  0.00     0.000 C
ATOM     68  C4  IDS B   4      20.959  19.969  21.1150  0.00  0.00     0.000 C
ATOM     69  C5  IDS B   4      19.515  19.462  20.9980  0.00  0.00     0.000 C
ATOM     70  O5  IDS B   4      18.632  20.580  20.8780  0.00  0.00     0.000 O
ATOM     71   O  IDS B   4      21.079  19.982  23.5090  0.00  0.00     0.000 O
ATOM     73  HD  IDS B   4      20.860  20.682  23.0490  0.00  0.00     0.000 HD
BRANCH 66 73
ATOM     73   O  IDS B   4      20.186  22.901  21.6320  0.00  0.00     0.000 O
ATOM     74   S  IDS B   4      20.386  24.366  22.2900  0.00  0.00     0.000 S
ATOM     75   O  IDS B   4      19.182  24.644  23.0430  0.00  0.00     0.000 OA
ATOM     76   O  IDS B   4      20.554  25.195  21.1230  0.00  0.00     0.000 OA
ATOM     77   O  IDS B   4      21.565  24.259  23.1170  0.00  0.00     0.000 OA
ENDBRANCH 66 73
BRANCH 69 78
ATOM     78   C  IDS B   4      19.300  18.419  19.9100  0.00  0.00     0.000 C
ATOM     79   O  IDS B   4      18.879  17.308  20.2320  0.00  0.00     0.000 OA
ATOM     80   O  IDS B   4      19.457  18.755  18.7220  0.00  0.00     0.000 OA
ENDBRANCH 69 78
BRANCH 65 81
ATOM     81  O4  SGN B   5      18.082  20.398  23.1720  0.00  0.00     0.000 O
BRANCH 81 85
ATOM     82  C1  SGN B   5      14.629  19.100  25.1790  0.00  0.00     0.000 C
ATOM     83  C2  SGN B   5      14.761  18.715  23.6980  0.00  0.00     0.000 C
ATOM     84  C3  SGN B   5      16.227  18.846  23.2620  0.00  0.00     0.000 C
ATOM     85  C4  SGN B   5      16.713  20.254  23.5590  0.00  0.00     0.000 C
ATOM     86  C5  SGN B   5      16.555  20.510  25.0560  0.00  0.00     0.000 C
ATOM     87  O5  SGN B   5      15.161  20.392  25.4000  0.00  0.00     0.000 O
ATOM     88   O  SGN B   5      16.347  18.549  21.8880  0.00  0.00     0.000 O
ATOM     90  HD  SGN B   5      16.552  18.014  22.5380  0.00  0.00     0.000 HD
BRANCH 83 92
ATOM     90   N  SGN B   5      13.294  18.560  23.6570  0.00  0.00     0.000 N
ATOM     92  HD  SGN B   5      12.908  19.304  23.4410  0.00  0.00     0.000 HD
ATOM     92   S  SGN B   5      12.695  17.257  22.9510  0.00  0.00     0.000 S
ATOM     93   O  SGN B   5      11.276  17.408  23.0720  0.00  0.00     0.000 OA
ATOM     94   O  SGN B   5      13.299  17.204  21.6640  0.00  0.00     0.000 OA
ATOM     95   O  SGN B   5      13.242  16.098  23.7550  0.00  0.00     0.000 OA
ENDBRANCH 83 92
BRANCH 86 96
ATOM     96   C  SGN B   5      17.015  21.882  25.5030  0.00  0.00     0.000 C
ATOM     97   O  SGN B   5      17.755  21.791  26.7230  0.00  0.00     0.000 O
ATOM     98   S  SGN B   5      19.183  22.520  26.7390  0.00  0.00     0.000 S
ATOM     99   O  SGN B   5      19.572  22.427  28.1250  0.00  0.00     0.000 OA
ATOM    100   O  SGN B   5      20.029  21.822  25.8380  0.00  0.00     0.000 OA
ATOM    101   O  SGN B   5      18.904  23.855  26.3180  0.00  0.00     0.000 OA
ENDBRANCH 86 96
BRANCH 82 102
ATOM    102  O4  IDS B   6      15.218  18.195  26.0110  0.00  0.00     0.000 O
BRANCH 102 106
ATOM    103  C1  IDS B   6      15.226  16.613  29.2900  0.00  0.00     0.000 C
ATOM    104  C2  IDS B   6      13.940  17.230  28.7180  0.00  0.00     0.000 C
ATOM    105  C3  IDS B   6      14.099  18.619  28.1320  0.00  0.00     0.000 C
ATOM    106  C4  IDS B   6      15.380  18.774  27.3300  0.00  0.00     0.000 C
ATOM    107  C5  IDS B   6      16.541  18.112  28.0780  0.00  0.00     0.000 C
ATOM    108  O5  IDS B   6      16.280  16.735  28.3540  0.00  0.00     0.000 O
ATOM    109   O  IDS B   6      14.054  19.556  29.1960  0.00  0.00     0.000 O
ATOM    111  HD  IDS B   6      14.279  19.092  29.8910  0.00  0.00     0.000 HD
BRANCH 104 111
ATOM    111   O  IDS B   6      13.459  16.392  27.6090  0.00  0.00     0.000 O
ATOM    112   S  IDS B   6      12.082  15.601  27.8050  0.00  0.00     0.000 S
ATOM    113   O  IDS B   6      12.304  14.764  28.9740  0.00  0.00     0.000 OA
ATOM    114   O  IDS B   6      11.000  16.581  27.9500  0.00  0.00     0.000 OA
ATOM    115   O  IDS B   6      12.052  14.871  26.5560  0.00  0.00     0.000 OA
ENDBRANCH 104 111
BRANCH 107 116
ATOM    116   C  IDS B   6      17.812  18.242  27.2490  0.00  0.00     0.000 C
ATOM    117   O  IDS B   6      18.646  19.012  27.6530  0.00  0.00     0.000 OA
ATOM    118   O  IDS B   6      17.970  17.601  26.2220  0.00  0.00     0.000 OA
ENDBRANCH 107 116
BRANCH 103 119
ATOM    119  O4  SGN B   7      15.318  17.156  30.5320  0.00  0.00     0.000 O
BRANCH 119 123
ATOM    120  C1  SGN B   7      17.170  16.150  34.1440  0.00  0.00     0.000 C
ATOM    121  C2  SGN B   7      18.031  16.839  33.0690  0.00  0.00     0.000 C
ATOM    122  C3  SGN B   7      17.140  17.492  32.0040  0.00  0.00     0.000 C
ATOM    123  C4  SGN B   7      16.168  16.465  31.4480  0.00  0.00     0.000 C
ATOM    124  C5  SGN B   7      15.364  15.832  32.5960  0.00  0.00     0.000 C
ATOM    125  O5  SGN B   7      16.241  15.229  33.5730  0.00  0.00     0.000 O
ATOM    126   O  SGN B   7      17.971  18.036  30.9710  0.00  0.00     0.000 O
ATOM    128  HD  SGN B   7      17.914  17.683  31.7610  0.00  0.00     0.000 HD
BRANCH 121 130
ATOM    128   N  SGN B   7      18.899  17.185  34.1970  0.00  0.00     0.000 N
ATOM    130  HD  SGN B   7      19.283  16.410  34.1490  0.00  0.00     0.000 HD
ATOM    130   S  SGN B   7      20.464  17.517  34.0070  0.00  0.00     0.000 S
ATOM    131   O  SGN B   7      20.515  18.486  32.9660  0.00  0.00     0.000 OA
ATOM    132   O  SGN B   7      21.017  17.802  35.2810  0.00  0.00     0.000 OA
ATOM    133   O  SGN B   7      21.011  16.094  33.6480  0.00  0.00     0.000 OA
ENDBRANCH 121 130
BRANCH 124 134
ATOM    134   C  SGN B   7      14.456  14.720  32.1600  0.00  0.00     0.000 C
ATOM    135   O  SGN B   7      14.963  13.482  32.6860  0.00  0.00     0.000 O
ATOM    136   S  SGN B   7      14.066  12.210  32.4690  0.00  0.00     0.000 S
ATOM    137   O  SGN B   7      14.819  11.090  32.9810  0.00  0.00     0.000 OA
ATOM    138   O  SGN B   7      13.848  12.139  31.0420  0.00  0.00     0.000 OA
ATOM    139   O  SGN B   7      12.878  12.529  33.2450  0.00  0.00     0.000 OA
ENDBRANCH 124 134
BRANCH 120 140
ATOM    140  O4  IDS B   8      16.367  16.723  35.0480  0.00  0.00     0.000 O
BRANCH 140 144
ATOM    141  C1  IDS B   8      14.092  17.663  37.6750  0.00  0.00     0.000 C
ATOM    142  C2  IDS B   8      13.763  17.967  36.1850  0.00  0.00     0.000 C
ATOM    143  C3  IDS B   8      14.930  18.631  35.4330  0.00  0.00     0.000 C
ATOM    144  C4  IDS B   8      16.269  17.967  35.7520  0.00  0.00     0.000 C
ATOM    145  C5  IDS B   8      16.394  17.729  37.2650  0.00  0.00     0.000 C
ATOM    146  O5  IDS B   8      15.315  16.943  37.7650  0.00  0.00     0.000 O
BRANCH 142 147
ATOM    147   O  IDS B   8      13.449  16.697  35.4780  0.00  0.00     0.000 O
ATOM    148   S  IDS B   8      11.927  16.332  35.0520  0.00  0.00     0.000 S
ATOM    149   O  IDS B   8      11.042  17.195  35.8020  0.00  0.00     0.000 OA
ATOM    150   O  IDS B   8      11.858  16.565  33.6220  0.00  0.00     0.000 OA
ATOM    151   O  IDS B   8      11.754  14.937  35.4100  0.00  0.00     0.000 OA
ENDBRANCH 142 147
BRANCH 145 152
ATOM    152   C  IDS B   8      17.660  16.982  37.6350  0.00  0.00     0.000 C
ATOM    153   O  IDS B   8      17.589  15.810  37.9850  0.00  0.00     0.000 OA
ATOM    154   O  IDS B   8      18.736  17.548  37.5600  0.00  0.00     0.000 OA
ENDBRANCH 145 152
ENDBRANCH 140 144
ENDBRANCH 120 140
ENDBRANCH 119 123
ENDBRANCH 103 119
ENDBRANCH 102 106
ENDBRANCH 82 102
ENDBRANCH 81 85
ENDBRANCH 65 81
ENDBRANCH 64 68
ENDBRANCH 41 64
ENDBRANCH 40 44
ENDBRANCH 24 40
ENDBRANCH 23 27
ENDBRANCH 1 23
TORSDOF 31
ENDMDL
MODEL 21
REMARK VINA RESULT:      -7.4     13.424     18.734
ROOT
ATOM      1  C1  SGN B   1      29.355   6.209  39.6820  0.00  0.00     0.000 C
ATOM      2  C2  SGN B   1      30.131   5.967  38.3780  0.00  0.00     0.000 C
ATOM      3  C3  SGN B   1      29.234   6.211  37.1590  0.00  0.00     0.000 C
ATOM      4  C4  SGN B   1      27.980   5.346  37.2470  0.00  0.00     0.000 C
ATOM      5  C5  SGN B   1      27.341   5.532  38.6210  0.00  0.00     0.000 C
ATOM      6  O5  SGN B   1      28.312   5.245  39.6460  0.00  0.00     0.000 O
ATOM      7   O  SGN B   1      29.942   5.942  35.9550  0.00  0.00     0.000 O
ATOM      9  HD  SGN B   1      29.962   5.170  36.3460  0.00  0.00     0.000 HD
ATOM      9   O  SGN B   1      27.073   5.729  36.2300  0.00  0.00     0.000 O
ATOM     11  HD  SGN B   1      27.092   4.957  36.6220  0.00  0.00     0.000 HD
ENDROOT
BRANCH 2 13
ATOM     11   N  SGN B   1      31.473   5.593  38.8600  0.00  0.00     0.000 N
ATOM     13  HD  SGN B   1      31.091   6.317  39.1410  0.00  0.00     0.000 HD
ATOM     13   S  SGN B   1      32.551   6.688  39.3370  0.00  0.00     0.000 S
ATOM     14   O  SGN B   1      31.994   7.982  39.2640  0.00  0.00     0.000 OA
ATOM     15   O  SGN B   1      33.134   6.245  40.5590  0.00  0.00     0.000 OA
ATOM     16   O  SGN B   1      33.610   6.462  38.2130  0.00  0.00     0.000 OA
ENDBRANCH 2 13
BRANCH 5 17
ATOM     17   C  SGN B   1      26.149   4.641  38.8690  0.00  0.00     0.000 C
ATOM     18   O  SGN B   1      26.322   3.359  38.2320  0.00  0.00     0.000 O
ATOM     19   S  SGN B   1      25.059   2.799  37.4270  0.00  0.00     0.000 S
ATOM     20   O  SGN B   1      25.402   1.432  37.0960  0.00  0.00     0.000 OA
ATOM     21   O  SGN B   1      23.966   2.911  38.3640  0.00  0.00     0.000 OA
ATOM     22   O  SGN B   1      24.935   3.662  36.2730  0.00  0.00     0.000 OA
ENDBRANCH 5 17
BRANCH 1 23
ATOM     23  O4  IDS B   2      29.061   7.208  40.5630  0.00  0.00     0.000 O
BRANCH 23 27
ATOM     24  C1  IDS B   2      25.815   9.501  39.3640  0.00  0.00     0.000 C
ATOM     25  C2  IDS B   2      27.201  10.036  38.9430  0.00  0.00     0.000 C
ATOM     26  C3  IDS B   2      28.284   8.984  39.1680  0.00  0.00     0.000 C
ATOM     27  C4  IDS B   2      28.323   8.448  40.5930  0.00  0.00     0.000 C
ATOM     28  C5  IDS B   2      26.890   8.325  41.1490  0.00  0.00     0.000 C
ATOM     29  O5  IDS B   2      25.940   8.275  40.0960  0.00  0.00     0.000 O
ATOM     30   O  IDS B   2      29.557   9.555  38.8890  0.00  0.00     0.000 O
ATOM     32  HD  IDS B   2      29.859  10.047  39.5330  0.00  0.00     0.000 HD
BRANCH 25 32
ATOM     32   O  IDS B   2      27.243  10.423  37.5110  0.00  0.00     0.000 O
ATOM     33   S  IDS B   2      27.604  11.961  37.0340  0.00  0.00     0.000 S
ATOM     34   O  IDS B   2      27.330  12.017  35.6070  0.00  0.00     0.000 OA
ATOM     35   O  IDS B   2      26.775  12.904  37.7720  0.00  0.00     0.000 OA
ATOM     36   O  IDS B   2      29.012  12.134  37.3070  0.00  0.00     0.000 OA
ENDBRANCH 25 32
BRANCH 28 37
ATOM     37   C  IDS B   2      26.594   7.168  42.1260  0.00  0.00     0.000 C
ATOM     38   O  IDS B   2      25.662   6.484  41.7710  0.00  0.00     0.000 OA
ATOM     39   O  IDS B   2      27.243   6.864  43.1560  0.00  0.00     0.000 OA
ENDBRANCH 28 37
BRANCH 24 40
ATOM     40  O4  SUS B   3      24.735  10.309  39.3040  0.00  0.00     0.000 O
BRANCH 40 44
ATOM     41  C1  SUS B   3      20.790   9.476  38.1700  0.00  0.00     0.000 C
ATOM     42  C2  SUS B   3      21.236   9.004  39.5690  0.00  0.00     0.000 C
ATOM     43  C3  SUS B   3      22.478   9.786  39.9910  0.00  0.00     0.000 C
ATOM     44  C4  SUS B   3      23.544   9.632  38.9170  0.00  0.00     0.000 C
ATOM     45  C5  SUS B   3      23.021  10.213  37.6190  0.00  0.00     0.000 C
ATOM     46  O5  SUS B   3      21.862   9.452  37.2210  0.00  0.00     0.000 O
BRANCH 42 49
ATOM     47   N  SUS B   3      20.142   9.094  40.5510  0.00  0.00     0.000 N
ATOM     49  HD  SUS B   3      20.322   9.502  41.2940  0.00  0.00     0.000 HD
ATOM     49   S  SUS B   3      19.514   7.664  40.9090  0.00  0.00     0.000 S
ATOM     50   O  SUS B   3      20.521   6.807  41.3970  0.00  0.00     0.000 OA
ATOM     51   O  SUS B   3      18.604   8.152  42.0650  0.00  0.00     0.000 OA
ATOM     52   O  SUS B   3      18.740   7.210  39.8230  0.00  0.00     0.000 OA
ENDBRANCH 42 49
BRANCH 43 53
ATOM     53   O  SUS B   3      22.962   9.218  41.2640  0.00  0.00     0.000 O
ATOM     54   S  SUS B   3      22.931  10.200  42.5820  0.00  0.00     0.000 S
ATOM     55   O  SUS B   3      21.535  10.379  42.9590  0.00  0.00     0.000 OA
ATOM     56   O  SUS B   3      23.717   9.485  43.5720  0.00  0.00     0.000 OA
ATOM     57   O  SUS B   3      23.537  11.469  42.1690  0.00  0.00     0.000 OA
ENDBRANCH 43 53
BRANCH 45 58
ATOM     58   C  SUS B   3      24.065  10.187  36.5250  0.00  0.00     0.000 C
ATOM     59   S  SUS B   3      24.954   8.745  34.5970  0.00  0.00     0.000 S
ATOM     60   O  SUS B   3      23.831   9.055  35.6700  0.00  0.00     0.000 O
ATOM     61   O  SUS B   3      26.016   8.091  35.3380  0.00  0.00     0.000 OA
ATOM     62   O  SUS B   3      24.249   7.845  33.7240  0.00  0.00     0.000 OA
ATOM     63   O  SUS B   3      25.294  10.001  34.0290  0.00  0.00     0.000 OA
ENDBRANCH 45 58
BRANCH 41 64
ATOM     64  O4  IDS B   4      20.077  10.649  38.1830  0.00  0.00     0.000 O
BRANCH 64 68
ATOM     65  C1  IDS B   4      17.013  12.250  37.0320  0.00  0.00     0.000 C
ATOM     66  C2  IDS B   4      17.157  10.724  36.9710  0.00  0.00     0.000 C
ATOM     67  C3  IDS B   4      18.477  10.241  36.3940  0.00  0.00     0.000 C
ATOM     68  C4  IDS B   4      19.662  11.064  36.8620  0.00  0.00     0.000 C
ATOM     69  C5  IDS B   4      19.276  12.547  36.7800  0.00  0.00     0.000 C
ATOM     70  O5  IDS B   4      18.167  12.793  37.6480  0.00  0.00     0.000 O
ATOM     71   O  IDS B   4      18.371  10.314  34.9870  0.00  0.00     0.000 O
ATOM     73  HD  IDS B   4      18.071  10.291  35.7990  0.00  0.00     0.000 HD
BRANCH 66 73
ATOM     73   O  IDS B   4      17.109  10.190  38.3390  0.00  0.00     0.000 O
ATOM     74   S  IDS B   4      15.710   9.568  38.8610  0.00  0.00     0.000 S
ATOM     75   O  IDS B   4      14.717  10.610  38.7120  0.00  0.00     0.000 OA
ATOM     76   O  IDS B   4      16.022   9.247  40.2310  0.00  0.00     0.000 OA
ATOM     77   O  IDS B   4      15.462   8.419  38.0230  0.00  0.00     0.000 OA
ENDBRANCH 66 73
BRANCH 69 78
ATOM     78   C  IDS B   4      20.432  13.511  37.0080  0.00  0.00     0.000 C
ATOM     79   O  IDS B   4      20.241  14.510  37.7000  0.00  0.00     0.000 OA
ATOM     80   O  IDS B   4      21.558  13.204  36.5760  0.00  0.00     0.000 OA
ENDBRANCH 69 78
BRANCH 65 81
ATOM     81  O4  SGN B   5      16.697  12.725  35.7950  0.00  0.00     0.000 O
BRANCH 81 85
ATOM     82  C1  SGN B   5      15.018  16.093  33.9300  0.00  0.00     0.000 C
ATOM     83  C2  SGN B   5      16.542  15.929  33.8340  0.00  0.00     0.000 C
ATOM     84  C3  SGN B   5      16.923  14.474  34.1370  0.00  0.00     0.000 C
ATOM     85  C4  SGN B   5      16.364  14.082  35.4940  0.00  0.00     0.000 C
ATOM     86  C5  SGN B   5      14.849  14.263  35.4590  0.00  0.00     0.000 C
ATOM     87  O5  SGN B   5      14.555  15.648  35.1910  0.00  0.00     0.000 O
ATOM     88   O  SGN B   5      18.326  14.328  34.1070  0.00  0.00     0.000 O
ATOM     90  HD  SGN B   5      17.783  14.091  33.4760  0.00  0.00     0.000 HD
BRANCH 83 92
ATOM     90   N  SGN B   5      16.775  16.512  32.4980  0.00  0.00     0.000 N
ATOM     92  HD  SGN B   5      16.058  16.473  32.0130  0.00  0.00     0.000 HD
ATOM     92   S  SGN B   5      17.577  17.891  32.4100  0.00  0.00     0.000 S
ATOM     93   O  SGN B   5      17.626  18.184  31.0090  0.00  0.00     0.000 OA
ATOM     94   O  SGN B   5      16.916  18.781  33.3010  0.00  0.00     0.000 OA
ATOM     95   O  SGN B   5      18.935  17.585  33.0030  0.00  0.00     0.000 OA
ENDBRANCH 83 92
BRANCH 86 96
ATOM     96   C  SGN B   5      14.150  13.896  36.7520  0.00  0.00     0.000 C
ATOM     97   O  SGN B   5      14.496  14.818  37.7890  0.00  0.00     0.000 O
ATOM     98   S  SGN B   5      13.271  15.463  38.5980  0.00  0.00     0.000 S
ATOM     99   O  SGN B   5      13.933  16.161  39.6740  0.00  0.00     0.000 OA
ATOM    100   O  SGN B   5      12.559  16.298  37.6990  0.00  0.00     0.000 OA
ATOM    101   O  SGN B   5      12.507  14.341  39.0380  0.00  0.00     0.000 OA
ENDBRANCH 86 96
BRANCH 82 102
ATOM    102  O4  IDS B   6      14.357  15.448  32.9270  0.00  0.00     0.000 O
BRANCH 102 106
ATOM    103  C1  IDS B   6      12.183  15.268  30.0120  0.00  0.00     0.000 C
ATOM    104  C2  IDS B   6      13.242  16.375  30.1360  0.00  0.00     0.000 C
ATOM    105  C3  IDS B   6      13.280  17.081  31.4770  0.00  0.00     0.000 C
ATOM    106  C4  IDS B   6      13.107  16.128  32.6470  0.00  0.00     0.000 C
ATOM    107  C5  IDS B   6      11.998  15.120  32.3330  0.00  0.00     0.000 C
ATOM    108  O5  IDS B   6      12.257  14.400  31.1260  0.00  0.00     0.000 O
ATOM    109   O  IDS B   6      12.266  18.073  31.4830  0.00  0.00     0.000 O
ATOM    111  HD  IDS B   6      11.703  17.799  30.8850  0.00  0.00     0.000 HD
BRANCH 104 111
ATOM    111   O  IDS B   6      14.578  15.782  29.9710  0.00  0.00     0.000 O
ATOM    112   S  IDS B   6      15.389  16.113  28.6310  0.00  0.00     0.000 S
ATOM    113   O  IDS B   6      14.525  15.650  27.5560  0.00  0.00     0.000 OA
ATOM    114   O  IDS B   6      15.679  17.552  28.6080  0.00  0.00     0.000 OA
ATOM    115   O  IDS B   6      16.552  15.281  28.8510  0.00  0.00     0.000 OA
ENDBRANCH 104 111
BRANCH 107 116
ATOM    116   C  IDS B   6      11.858  14.146  33.4960  0.00  0.00     0.000 C
ATOM    117   O  IDS B   6      12.240  13.019  33.3080  0.00  0.00     0.000 OA
ATOM    118   O  IDS B   6      11.372  14.494  34.5610  0.00  0.00     0.000 OA
ENDBRANCH 107 116
BRANCH 103 119
ATOM    119  O4  SGN B   7      11.044  15.945  29.7170  0.00  0.00     0.000 O
BRANCH 119 123
ATOM    120  C1  SGN B   7       7.715  15.347  27.2580  0.00  0.00     0.000 C
ATOM    121  C2  SGN B   7       7.738  14.621  28.6160  0.00  0.00     0.000 C
ATOM    122  C3  SGN B   7       8.790  15.245  29.5410  0.00  0.00     0.000 C
ATOM    123  C4  SGN B   7      10.137  15.278  28.8380  0.00  0.00     0.000 C
ATOM    124  C5  SGN B   7      10.007  16.015  27.4950  0.00  0.00     0.000 C
ATOM    125  O5  SGN B   7       9.008  15.394  26.6570  0.00  0.00     0.000 O
ATOM    126   O  SGN B   7       8.853  14.485  30.7540  0.00  0.00     0.000 O
ATOM    128  HD  SGN B   7       8.444  14.647  30.0080  0.00  0.00     0.000 HD
BRANCH 121 130
ATOM    128   N  SGN B   7       6.733  13.606  28.2890  0.00  0.00     0.000 N
ATOM    130  HD  SGN B   7       6.978  13.133  28.9720  0.00  0.00     0.000 HD
ATOM    130   S  SGN B   7       5.389  13.417  29.1550  0.00  0.00     0.000 S
ATOM    131   O  SGN B   7       4.828  14.720  29.2610  0.00  0.00     0.000 OA
ATOM    132   O  SGN B   7       4.637  12.356  28.5870  0.00  0.00     0.000 OA
ATOM    133   O  SGN B   7       5.986  12.817  30.4730  0.00  0.00     0.000 OA
ENDBRANCH 121 130
BRANCH 124 134
ATOM    134   C  SGN B   7      11.261  16.001  26.6720  0.00  0.00     0.000 C
ATOM    135   O  SGN B   7      10.958  16.522  25.3660  0.00  0.00     0.000 O
ATOM    136   S  SGN B   7      12.175  16.734  24.3970  0.00  0.00     0.000 S
ATOM    137   O  SGN B   7      11.619  17.157  23.1340  0.00  0.00     0.000 OA
ATOM    138   O  SGN B   7      12.828  15.447  24.3230  0.00  0.00     0.000 OA
ATOM    139   O  SGN B   7      12.944  17.762  25.0800  0.00  0.00     0.000 OA
ENDBRANCH 124 134
BRANCH 120 140
ATOM    140  O4  IDS B   8       7.319  16.599  27.0000  0.00  0.00     0.000 O
BRANCH 140 144
ATOM    141  C1  IDS B   8       6.944  20.151  27.4480  0.00  0.00     0.000 C
ATOM    142  C2  IDS B   8       6.927  19.186  28.6670  0.00  0.00     0.000 C
ATOM    143  C3  IDS B   8       5.987  17.982  28.4700  0.00  0.00     0.000 C
ATOM    144  C4  IDS B   8       6.117  17.375  27.0740  0.00  0.00     0.000 C
ATOM    145  C5  IDS B   8       6.140  18.487  26.0140  0.00  0.00     0.000 C
ATOM    146  O5  IDS B   8       7.190  19.421  26.2520  0.00  0.00     0.000 O
BRANCH 142 147
ATOM    147   O  IDS B   8       8.294  18.644  28.8890  0.00  0.00     0.000 O
ATOM    148   S  IDS B   8       9.269  19.276  30.0220  0.00  0.00     0.000 S
ATOM    149   O  IDS B   8       8.733  20.566  30.3910  0.00  0.00     0.000 OA
ATOM    150   O  IDS B   8       9.253  18.326  31.1190  0.00  0.00     0.000 OA
ATOM    151   O  IDS B   8      10.568  19.390  29.3860  0.00  0.00     0.000 OA
ENDBRANCH 142 147
BRANCH 145 152
ATOM    152   C  IDS B   8       6.368  17.952  24.6140  0.00  0.00     0.000 C
ATOM    153   O  IDS B   8       5.540  17.201  24.1120  0.00  0.00     0.000 OA
ATOM    154   O  IDS B   8       7.360  18.291  23.9950  0.00  0.00     0.000 OA
ENDBRANCH 145 152
ENDBRANCH 140 144
ENDBRANCH 120 140
ENDBRANCH 119 123
ENDBRANCH 103 119
ENDBRANCH 102 106
ENDBRANCH 82 102
ENDBRANCH 81 85
ENDBRANCH 65 81
ENDBRANCH 64 68
ENDBRANCH 41 64
ENDBRANCH 40 44
ENDBRANCH 24 40
ENDBRANCH 23 27
ENDBRANCH 1 23
TORSDOF 31
ENDMDL
MODEL 22
REMARK VINA RESULT:      -7.4      3.882      6.268
ROOT
ATOM      1  C1  SGN B   1      28.868  10.415  13.8520  0.00  0.00     0.000 C
ATOM      2  C2  SGN B   1      30.263  10.533  14.4890  0.00  0.00     0.000 C
ATOM      3  C3  SGN B   1      31.344  10.038  13.5220  0.00  0.00     0.000 C
ATOM      4  C4  SGN B   1      31.039   8.612  13.0770  0.00  0.00     0.000 C
ATOM      5  C5  SGN B   1      29.594   8.539  12.5890  0.00  0.00     0.000 C
ATOM      6  O5  SGN B   1      28.713   9.021  13.6220  0.00  0.00     0.000 O
ATOM      7   O  SGN B   1      32.628  10.108  14.1300  0.00  0.00     0.000 O
ATOM      9  HD  SGN B   1      32.214   9.557  14.6550  0.00  0.00     0.000 HD
ATOM      9   O  SGN B   1      31.925   8.245  12.0350  0.00  0.00     0.000 O
ATOM     11  HD  SGN B   1      31.511   7.694  12.5600  0.00  0.00     0.000 HD
ENDROOT
BRANCH 2 13
ATOM     11   N  SGN B   1      29.790  11.092  15.7700  0.00  0.00     0.000 N
ATOM     13  HD  SGN B   1      29.688  11.534  15.0320  0.00  0.00     0.000 HD
ATOM     13   S  SGN B   1      29.700  12.676  16.0350  0.00  0.00     0.000 S
ATOM     14   O  SGN B   1      30.079  13.385  14.8760  0.00  0.00     0.000 OA
ATOM     15   O  SGN B   1      28.446  12.959  16.6500  0.00  0.00     0.000 OA
ATOM     16   O  SGN B   1      30.791  12.778  17.1450  0.00  0.00     0.000 OA
ENDBRANCH 2 13
BRANCH 5 17
ATOM     17   C  SGN B   1      29.139   7.148  12.2230  0.00  0.00     0.000 C
ATOM     18   O  SGN B   1      29.777   6.161  13.0570  0.00  0.00     0.000 O
ATOM     19   S  SGN B   1      30.353   4.873  12.3050  0.00  0.00     0.000 S
ATOM     20   O  SGN B   1      30.716   3.953  13.3610  0.00  0.00     0.000 OA
ATOM     21   O  SGN B   1      29.249   4.416  11.4940  0.00  0.00     0.000 OA
ATOM     22   O  SGN B   1      31.483   5.356  11.5410  0.00  0.00     0.000 OA
ENDBRANCH 5 17
BRANCH 1 23
ATOM     23  O4  IDS B   2      27.993  11.132  13.0910  0.00  0.00     0.000 O
BRANCH 23 27
ATOM     24  C1  IDS B   2      25.482  13.831  15.0000  0.00  0.00     0.000 C
ATOM     25  C2  IDS B   2      25.051  12.350  15.0770  0.00  0.00     0.000 C
ATOM     26  C3  IDS B   2      26.177  11.429  14.6130  0.00  0.00     0.000 C
ATOM     27  C4  IDS B   2      26.703  11.766  13.2240  0.00  0.00     0.000 C
ATOM     28  C5  IDS B   2      26.720  13.294  13.0230  0.00  0.00     0.000 C
ATOM     29  O5  IDS B   2      26.709  13.970  14.2720  0.00  0.00     0.000 O
ATOM     30   O  IDS B   2      25.701  10.088  14.5780  0.00  0.00     0.000 O
ATOM     32  HD  IDS B   2      25.226   9.912  13.8750  0.00  0.00     0.000 HD
BRANCH 25 32
ATOM     32   O  IDS B   2      24.679  11.943  16.4540  0.00  0.00     0.000 O
ATOM     33   S  IDS B   2      23.233  11.223  16.7900  0.00  0.00     0.000 S
ATOM     34   O  IDS B   2      23.129  11.180  18.2400  0.00  0.00     0.000 OA
ATOM     35   O  IDS B   2      22.154  12.005  16.2020  0.00  0.00     0.000 OA
ATOM     36   O  IDS B   2      23.319   9.895  16.2290  0.00  0.00     0.000 OA
ENDBRANCH 25 32
BRANCH 28 37
ATOM     37   C  IDS B   2      27.845  13.895  12.1560  0.00  0.00     0.000 C
ATOM     38   O  IDS B   2      28.374  14.851  12.6720  0.00  0.00     0.000 OA
ATOM     39   O  IDS B   2      28.269  13.456  11.0590  0.00  0.00     0.000 OA
ENDBRANCH 28 37
BRANCH 24 40
ATOM     40  O4  SUS B   3      24.600  14.805  15.3060  0.00  0.00     0.000 O
BRANCH 40 44
ATOM     41  C1  SUS B   3      25.233  18.628  16.8970  0.00  0.00     0.000 C
ATOM     42  C2  SUS B   3      25.538  18.428  15.3980  0.00  0.00     0.000 C
ATOM     43  C3  SUS B   3      24.817  17.178  14.9010  0.00  0.00     0.000 C
ATOM     44  C4  SUS B   3      25.216  15.999  15.7750  0.00  0.00     0.000 C
ATOM     45  C5  SUS B   3      24.783  16.277  17.2000  0.00  0.00     0.000 C
ATOM     46  O5  SUS B   3      25.487  17.446  17.6650  0.00  0.00     0.000 O
BRANCH 42 49
ATOM     47   N  SUS B   3      26.430  19.594  15.5200  0.00  0.00     0.000 N
ATOM     49  HD  SUS B   3      26.269  20.139  16.1730  0.00  0.00     0.000 HD
ATOM     49   S  SUS B   3      26.516  20.450  14.1680  0.00  0.00     0.000 S
ATOM     50   O  SUS B   3      25.227  20.877  13.7880  0.00  0.00     0.000 OA
ATOM     51   O  SUS B   3      27.332  21.630  14.7540  0.00  0.00     0.000 OA
ATOM     52   O  SUS B   3      27.276  19.743  13.2150  0.00  0.00     0.000 OA
ENDBRANCH 42 49
BRANCH 43 53
ATOM     53   O  SUS B   3      25.239  16.934  13.5070  0.00  0.00     0.000 O
ATOM     54   S  SUS B   3      24.075  17.009  12.3480  0.00  0.00     0.000 S
ATOM     55   O  SUS B   3      23.695  18.407  12.2030  0.00  0.00     0.000 OA
ATOM     56   O  SUS B   3      24.715  16.450  11.1710  0.00  0.00     0.000 OA
ATOM     57   O  SUS B   3      22.953  16.201  12.8340  0.00  0.00     0.000 OA
ENDBRANCH 43 53
BRANCH 45 58
ATOM     58   C  SUS B   3      25.057  15.103  18.1140  0.00  0.00     0.000 C
ATOM     59   S  SUS B   3      24.624  14.232  20.4890  0.00  0.00     0.000 S
ATOM     60   O  SUS B   3      24.298  15.256  19.3250  0.00  0.00     0.000 O
ATOM     61   O  SUS B   3      25.855  14.715  21.0840  0.00  0.00     0.000 OA
ATOM     62   O  SUS B   3      23.482  14.425  21.3420  0.00  0.00     0.000 OA
ATOM     63   O  SUS B   3      24.708  12.960  19.8640  0.00  0.00     0.000 OA
ENDBRANCH 45 58
BRANCH 41 64
ATOM     64  O4  IDS B   4      24.011  19.205  17.1400  0.00  0.00     0.000 O
BRANCH 64 68
ATOM     65  C1  IDS B   4      21.572  21.410  18.7100  0.00  0.00     0.000 C
ATOM     66  C2  IDS B   4      22.929  21.960  18.2530  0.00  0.00     0.000 C
ATOM     67  C3  IDS B   4      24.120  21.108  18.6550  0.00  0.00     0.000 C
ATOM     68  C4  IDS B   4      23.856  19.621  18.5150  0.00  0.00     0.000 C
ATOM     69  C5  IDS B   4      22.463  19.327  19.0890  0.00  0.00     0.000 C
ATOM     70  O5  IDS B   4      21.483  20.047  18.3360  0.00  0.00     0.000 O
ATOM     71   O  IDS B   4      24.419  21.415  20.0010  0.00  0.00     0.000 O
ATOM     73  HD  IDS B   4      24.061  21.548  19.2240  0.00  0.00     0.000 HD
BRANCH 66 73
ATOM     73   O  IDS B   4      22.953  21.997  16.7840  0.00  0.00     0.000 O
ATOM     74   S  IDS B   4      22.777  23.433  16.0590  0.00  0.00     0.000 S
ATOM     75   O  IDS B   4      21.527  23.984  16.5380  0.00  0.00     0.000 OA
ATOM     76   O  IDS B   4      22.758  23.061  14.6660  0.00  0.00     0.000 OA
ATOM     77   O  IDS B   4      23.930  24.207  16.4510  0.00  0.00     0.000 OA
ENDBRANCH 66 73
BRANCH 69 78
ATOM     78   C  IDS B   4      22.137  17.846  19.2230  0.00  0.00     0.000 C
ATOM     79   O  IDS B   4      22.003  17.370  20.3490  0.00  0.00     0.000 OA
ATOM     80   O  IDS B   4      21.912  17.190  18.1890  0.00  0.00     0.000 OA
ENDBRANCH 69 78
BRANCH 65 81
ATOM     81  O4  SGN B   5      21.388  21.697  20.0290  0.00  0.00     0.000 O
BRANCH 81 85
ATOM     82  C1  SGN B   5      18.467  22.475  22.9450  0.00  0.00     0.000 C
ATOM     83  C2  SGN B   5      18.369  21.136  22.1980  0.00  0.00     0.000 C
ATOM     84  C3  SGN B   5      19.718  20.814  21.5410  0.00  0.00     0.000 C
ATOM     85  C4  SGN B   5      20.127  21.969  20.6450  0.00  0.00     0.000 C
ATOM     86  C5  SGN B   5      20.214  23.231  21.4990  0.00  0.00     0.000 C
ATOM     87  O5  SGN B   5      18.918  23.492  22.0710  0.00  0.00     0.000 O
ATOM     88   O  SGN B   5      19.619  19.614  20.8060  0.00  0.00     0.000 O
ATOM     90  HD  SGN B   5      19.980  19.695  21.5890  0.00  0.00     0.000 HD
BRANCH 83 92
ATOM     90   N  SGN B   5      16.956  21.120  22.6250  0.00  0.00     0.000 N
ATOM     92  HD  SGN B   5      16.460  21.568  22.0740  0.00  0.00     0.000 HD
ATOM     92   S  SGN B   5      16.336  19.731  23.1170  0.00  0.00     0.000 S
ATOM     93   O  SGN B   5      14.978  20.047  23.4470  0.00  0.00     0.000 OA
ATOM     94   O  SGN B   5      16.620  18.794  22.0850  0.00  0.00     0.000 OA
ATOM     95   O  SGN B   5      17.168  19.344  24.3210  0.00  0.00     0.000 OA
ENDBRANCH 83 92
BRANCH 86 96
ATOM     96   C  SGN B   5      20.627  24.472  20.7340  0.00  0.00     0.000 C
ATOM     97   O  SGN B   5      19.965  24.524  19.4680  0.00  0.00     0.000 O
ATOM     98   S  SGN B   5      19.219  25.900  19.1180  0.00  0.00     0.000 S
ATOM     99   O  SGN B   5      18.842  25.715  17.7370  0.00  0.00     0.000 OA
ATOM    100   O  SGN B   5      18.129  26.035  20.0170  0.00  0.00     0.000 OA
ATOM    101   O  SGN B   5      20.218  26.902  19.3020  0.00  0.00     0.000 OA
ENDBRANCH 86 96
BRANCH 82 102
ATOM    102  O4  IDS B   6      19.270  22.404  24.0450  0.00  0.00     0.000 O
BRANCH 102 106
ATOM    103  C1  IDS B   6      20.133  22.527  27.5800  0.00  0.00     0.000 C
ATOM    104  C2  IDS B   6      19.006  21.610  27.0770  0.00  0.00     0.000 C
ATOM    105  C3  IDS B   6      18.019  22.265  26.1300  0.00  0.00     0.000 C
ATOM    106  C4  IDS B   6      18.692  23.182  25.1240  0.00  0.00     0.000 C
ATOM    107  C5  IDS B   6      19.765  24.021  25.8250  0.00  0.00     0.000 C
ATOM    108  O5  IDS B   6      20.730  23.204  26.4900  0.00  0.00     0.000 O
ATOM    109   O  IDS B   6      17.070  22.978  26.9050  0.00  0.00     0.000 O
ATOM    111  HD  IDS B   6      17.480  23.126  27.6530  0.00  0.00     0.000 HD
BRANCH 104 111
ATOM    111   O  IDS B   6      19.597  20.499  26.3170  0.00  0.00     0.000 O
ATOM    112   S  IDS B   6      19.618  19.049  26.9950  0.00  0.00     0.000 S
ATOM    113   O  IDS B   6      20.366  19.233  28.2290  0.00  0.00     0.000 OA
ATOM    114   O  IDS B   6      18.232  18.603  27.1800  0.00  0.00     0.000 OA
ATOM    115   O  IDS B   6      20.340  18.323  25.9730  0.00  0.00     0.000 OA
ENDBRANCH 104 111
BRANCH 107 116
ATOM    116   C  IDS B   6      20.458  24.910  24.8010  0.00  0.00     0.000 C
ATOM    117   O  IDS B   6      21.613  24.663  24.5620  0.00  0.00     0.000 OA
ATOM    118   O  IDS B   6      19.870  25.833  24.2590  0.00  0.00     0.000 OA
ENDBRANCH 107 116
BRANCH 103 119
ATOM    119  O4  SGN B   7      19.560  23.208  28.6050  0.00  0.00     0.000 O
BRANCH 119 123
ATOM    120  C1  SGN B   7      20.800  24.735  32.2960  0.00  0.00     0.000 C
ATOM    121  C2  SGN B   7      21.120  25.563  31.0370  0.00  0.00     0.000 C
ATOM    122  C3  SGN B   7      20.269  25.090  29.8520  0.00  0.00     0.000 C
ATOM    123  C4  SGN B   7      20.440  23.592  29.6620  0.00  0.00     0.000 C
ATOM    124  C5  SGN B   7      20.104  22.859  30.9710  0.00  0.00     0.000 C
ATOM    125  O5  SGN B   7      20.928  23.334  32.0590  0.00  0.00     0.000 O
ATOM    126   O  SGN B   7      20.663  25.812  28.6790  0.00  0.00     0.000 O
ATOM    128  HD  SGN B   7      20.712  25.723  29.5390  0.00  0.00     0.000 HD
BRANCH 121 130
ATOM    128   N  SGN B   7      21.472  26.566  32.0460  0.00  0.00     0.000 N
ATOM    130  HD  SGN B   7      22.314  26.400  31.9260  0.00  0.00     0.000 HD
ATOM    130   S  SGN B   7      22.115  27.989  31.6540  0.00  0.00     0.000 S
ATOM    131   O  SGN B   7      21.265  28.515  30.6400  0.00  0.00     0.000 OA
ATOM    132   O  SGN B   7      22.344  28.720  32.8480  0.00  0.00     0.000 OA
ATOM    133   O  SGN B   7      23.540  27.536  31.1880  0.00  0.00     0.000 OA
ENDBRANCH 121 130
BRANCH 124 134
ATOM    134   C  SGN B   7      20.353  21.380  30.9190  0.00  0.00     0.000 C
ATOM    135   O  SGN B   7      20.831  20.951  32.2060  0.00  0.00     0.000 O
ATOM    136   S  SGN B   7      21.007  19.403  32.4060  0.00  0.00     0.000 S
ATOM    137   O  SGN B   7      21.587  19.226  33.7160  0.00  0.00     0.000 OA
ATOM    138   O  SGN B   7      21.884  18.980  31.3380  0.00  0.00     0.000 OA
ATOM    139   O  SGN B   7      19.641  18.915  32.2930  0.00  0.00     0.000 OA
ENDBRANCH 124 134
BRANCH 120 140
ATOM    140  O4  IDS B   8      19.667  24.723  33.0070  0.00  0.00     0.000 O
BRANCH 140 144
ATOM    141  C1  IDS B   8      16.124  24.730  33.6500  0.00  0.00     0.000 C
ATOM    142  C2  IDS B   8      16.727  25.563  32.4830  0.00  0.00     0.000 C
ATOM    143  C3  IDS B   8      17.938  26.412  32.9100  0.00  0.00     0.000 C
ATOM    144  C4  IDS B   8      18.898  25.631  33.8060  0.00  0.00     0.000 C
ATOM    145  C5  IDS B   8      18.113  24.858  34.8760  0.00  0.00     0.000 C
ATOM    146  O5  IDS B   8      17.149  23.983  34.2940  0.00  0.00     0.000 O
BRANCH 142 147
ATOM    147   O  IDS B   8      17.189  24.646  31.4080  0.00  0.00     0.000 O
ATOM    148   S  IDS B   8      16.276  24.370  30.0960  0.00  0.00     0.000 S
ATOM    149   O  IDS B   8      14.933  24.813  30.3950  0.00  0.00     0.000 OA
ATOM    150   O  IDS B   8      16.894  25.132  29.0260  0.00  0.00     0.000 OA
ATOM    151   O  IDS B   8      16.339  22.936  29.8820  0.00  0.00     0.000 OA
ENDBRANCH 142 147
BRANCH 145 152
ATOM    152   C  IDS B   8      19.004  23.984  35.7360  0.00  0.00     0.000 C
ATOM    153   O  IDS B   8      19.251  22.837  35.3790  0.00  0.00     0.000 OA
ATOM    154   O  IDS B   8      19.482  24.436  36.7610  0.00  0.00     0.000 OA
ENDBRANCH 145 152
ENDBRANCH 140 144
ENDBRANCH 120 140
ENDBRANCH 119 123
ENDBRANCH 103 119
ENDBRANCH 102 106
ENDBRANCH 82 102
ENDBRANCH 81 85
ENDBRANCH 65 81
ENDBRANCH 64 68
ENDBRANCH 41 64
ENDBRANCH 40 44
ENDBRANCH 24 40
ENDBRANCH 23 27
ENDBRANCH 1 23
TORSDOF 31
ENDMDL
MODEL 23
REMARK VINA RESULT:      -7.3      3.486      5.571
ROOT
ATOM      1  C1  SGN B   1      27.218  16.344  12.4290  0.00  0.00     0.000 C
ATOM      2  C2  SGN B   1      28.177  16.672  11.2730  0.00  0.00     0.000 C
ATOM      3  C3  SGN B   1      27.852  18.043  10.6700  0.00  0.00     0.000 C
ATOM      4  C4  SGN B   1      26.392  18.091  10.2310  0.00  0.00     0.000 C
ATOM      5  C5  SGN B   1      25.509  17.618  11.3830  0.00  0.00     0.000 C
ATOM      6  O5  SGN B   1      25.937  16.312  11.8140  0.00  0.00     0.000 O
ATOM      7   O  SGN B   1      28.713  18.323   9.5720  0.00  0.00     0.000 O
ATOM      9  HD  SGN B   1      28.307  17.608   9.2990  0.00  0.00     0.000 HD
ATOM      9   O  SGN B   1      26.054  19.418   9.8690  0.00  0.00     0.000 O
ATOM     11  HD  SGN B   1      25.648  18.703   9.5960  0.00  0.00     0.000 HD
ENDROOT
BRANCH 2 13
ATOM     11   N  SGN B   1      29.042  15.477  11.2400  0.00  0.00     0.000 N
ATOM     13  HD  SGN B   1      28.930  15.919  11.9760  0.00  0.00     0.000 HD
ATOM     13   S  SGN B   1      30.288  15.290  12.2410  0.00  0.00     0.000 S
ATOM     14   O  SGN B   1      30.362  16.381  13.1330  0.00  0.00     0.000 OA
ATOM     15   O  SGN B   1      30.254  13.964  12.7590  0.00  0.00     0.000 OA
ATOM     16   O  SGN B   1      31.434  15.343  11.1840  0.00  0.00     0.000 OA
ENDBRANCH 2 13
BRANCH 5 17
ATOM     17   C  SGN B   1      24.044  17.518  11.0330  0.00  0.00     0.000 C
ATOM     18   O  SGN B   1      23.375  18.775  11.2570  0.00  0.00     0.000 O
ATOM     19   S  SGN B   1      21.967  18.695  12.0110  0.00  0.00     0.000 S
ATOM     20   O  SGN B   1      21.406  20.025  11.9000  0.00  0.00     0.000 OA
ATOM     21   O  SGN B   1      21.230  17.693  11.2760  0.00  0.00     0.000 OA
ATOM     22   O  SGN B   1      22.287  18.312  13.3690  0.00  0.00     0.000 OA
ENDBRANCH 5 17
BRANCH 1 23
ATOM     23  O4  IDS B   2      27.104  16.498  13.7790  0.00  0.00     0.000 O
BRANCH 23 27
ATOM     24  C1  IDS B   2      26.675  18.141  17.5670  0.00  0.00     0.000 C
ATOM     25  C2  IDS B   2      26.555  19.135  16.3910  0.00  0.00     0.000 C
ATOM     26  C3  IDS B   2      26.429  18.396  15.0610  0.00  0.00     0.000 C
ATOM     27  C4  IDS B   2      27.554  17.400  14.8110  0.00  0.00     0.000 C
ATOM     28  C5  IDS B   2      27.950  16.710  16.1320  0.00  0.00     0.000 C
ATOM     29  O5  IDS B   2      26.905  16.808  17.0890  0.00  0.00     0.000 O
ATOM     30   O  IDS B   2      26.447  19.340  13.9970  0.00  0.00     0.000 O
ATOM     32  HD  IDS B   2      27.244  19.619  13.8010  0.00  0.00     0.000 HD
BRANCH 25 32
ATOM     32   O  IDS B   2      25.374  20.022  16.5240  0.00  0.00     0.000 O
ATOM     33   S  IDS B   2      25.521  21.663  16.6100  0.00  0.00     0.000 S
ATOM     34   O  IDS B   2      24.203  22.171  16.9580  0.00  0.00     0.000 OA
ATOM     35   O  IDS B   2      26.509  22.009  17.6220  0.00  0.00     0.000 OA
ATOM     36   O  IDS B   2      25.915  22.089  15.2870  0.00  0.00     0.000 OA
ENDBRANCH 25 32
BRANCH 28 37
ATOM     37   C  IDS B   2      28.410  15.239  16.0670  0.00  0.00     0.000 C
ATOM     38   O  IDS B   2      29.612  15.128  16.0000  0.00  0.00     0.000 OA
ATOM     39   O  IDS B   2      27.686  14.216  16.1400  0.00  0.00     0.000 OA
ENDBRANCH 28 37
BRANCH 24 40
ATOM     40  O4  SUS B   3      26.864  18.601  18.8210  0.00  0.00     0.000 O
BRANCH 40 44
ATOM     41  C1  SUS B   3      24.775  16.958  22.0590  0.00  0.00     0.000 C
ATOM     42  C2  SUS B   3      26.279  17.235  22.2570  0.00  0.00     0.000 C
ATOM     43  C3  SUS B   3      26.748  18.240  21.2080  0.00  0.00     0.000 C
ATOM     44  C4  SUS B   3      26.394  17.710  19.8270  0.00  0.00     0.000 C
ATOM     45  C5  SUS B   3      24.889  17.569  19.7270  0.00  0.00     0.000 C
ATOM     46  O5  SUS B   3      24.462  16.602  20.7080  0.00  0.00     0.000 O
BRANCH 42 49
ATOM     47   N  SUS B   3      26.339  17.533  23.6980  0.00  0.00     0.000 N
ATOM     49  HD  SUS B   3      26.572  18.338  23.9170  0.00  0.00     0.000 HD
ATOM     49   S  SUS B   3      27.272  16.509  24.5030  0.00  0.00     0.000 S
ATOM     50   O  SUS B   3      28.574  16.519  23.9620  0.00  0.00     0.000 OA
ATOM     51   O  SUS B   3      27.237  17.260  25.8580  0.00  0.00     0.000 OA
ATOM     52   O  SUS B   3      26.618  15.265  24.6070  0.00  0.00     0.000 OA
ENDBRANCH 42 49
BRANCH 43 53
ATOM     53   O  SUS B   3      28.212  18.377  21.3320  0.00  0.00     0.000 O
ATOM     54   S  SUS B   3      28.783  19.792  21.9430  0.00  0.00     0.000 S
ATOM     55   O  SUS B   3      28.457  19.818  23.3620  0.00  0.00     0.000 OA
ATOM     56   O  SUS B   3      30.209  19.743  21.6710  0.00  0.00     0.000 OA
ATOM     57   O  SUS B   3      28.093  20.865  21.2200  0.00  0.00     0.000 OA
ENDBRANCH 43 53
BRANCH 45 58
ATOM     58   C  SUS B   3      24.450  17.140  18.3440  0.00  0.00     0.000 C
ATOM     59   S  SUS B   3      23.248  15.254  17.0860  0.00  0.00     0.000 S
ATOM     60   O  SUS B   3      23.622  15.970  18.4480  0.00  0.00     0.000 O
ATOM     61   O  SUS B   3      24.432  14.503  16.7150  0.00  0.00     0.000 OA
ATOM     62   O  SUS B   3      22.166  14.410  17.5160  0.00  0.00     0.000 OA
ATOM     63   O  SUS B   3      22.887  16.299  16.1940  0.00  0.00     0.000 OA
ENDBRANCH 45 58
BRANCH 41 64
ATOM     64  O4  IDS B   4      23.959  17.929  22.5870  0.00  0.00     0.000 O
BRANCH 64 68
ATOM     65  C1  IDS B   4      20.959  19.579  23.8320  0.00  0.00     0.000 C
ATOM     66  C2  IDS B   4      22.088  19.198  24.7980  0.00  0.00     0.000 C
ATOM     67  C3  IDS B   4      22.620  17.786  24.6160  0.00  0.00     0.000 C
ATOM     68  C4  IDS B   4      22.747  17.387  23.1570  0.00  0.00     0.000 C
ATOM     69  C5  IDS B   4      21.475  17.837  22.4270  0.00  0.00     0.000 C
ATOM     70  O5  IDS B   4      21.361  19.259  22.5120  0.00  0.00     0.000 O
ATOM     71   O  IDS B   4      21.726  16.913  25.2740  0.00  0.00     0.000 O
ATOM     73  HD  IDS B   4      22.089  17.678  25.0920  0.00  0.00     0.000 HD
BRANCH 66 73
ATOM     73   O  IDS B   4      23.236  20.083  24.5560  0.00  0.00     0.000 O
ATOM     74   S  IDS B   4      23.642  21.132  25.7190  0.00  0.00     0.000 S
ATOM     75   O  IDS B   4      22.462  21.927  25.9840  0.00  0.00     0.000 OA
ATOM     76   O  IDS B   4      24.715  21.864  25.0960  0.00  0.00     0.000 OA
ATOM     77   O  IDS B   4      24.049  20.322  26.8430  0.00  0.00     0.000 OA
ENDBRANCH 66 73
BRANCH 69 78
ATOM     78   C  IDS B   4      21.350  17.316  21.0020  0.00  0.00     0.000 C
ATOM     79   O  IDS B   4      21.354  18.125  20.0750  0.00  0.00     0.000 OA
ATOM     80   O  IDS B   4      21.355  16.086  20.8140  0.00  0.00     0.000 OA
ENDBRANCH 69 78
BRANCH 65 81
ATOM     81  O4  SGN B   5      19.788  19.034  24.2650  0.00  0.00     0.000 O
BRANCH 81 85
ATOM     82  C1  SGN B   5      15.637  19.638  24.4610  0.00  0.00     0.000 C
ATOM     83  C2  SGN B   5      16.241  19.388  23.0710  0.00  0.00     0.000 C
ATOM     84  C3  SGN B   5      17.625  18.741  23.2210  0.00  0.00     0.000 C
ATOM     85  C4  SGN B   5      18.495  19.621  24.1010  0.00  0.00     0.000 C
ATOM     86  C5  SGN B   5      17.806  19.776  25.4550  0.00  0.00     0.000 C
ATOM     87  O5  SGN B   5      16.526  20.403  25.2520  0.00  0.00     0.000 O
ATOM     88   O  SGN B   5      18.211  18.560  21.9500  0.00  0.00     0.000 O
ATOM     90  HD  SGN B   5      17.831  17.940  22.4210  0.00  0.00     0.000 HD
BRANCH 83 92
ATOM     90   N  SGN B   5      14.808  19.559  22.7610  0.00  0.00     0.000 N
ATOM     92  HD  SGN B   5      14.485  20.257  23.1600  0.00  0.00     0.000 HD
ATOM     92   S  SGN B   5      14.340  19.369  21.2450  0.00  0.00     0.000 S
ATOM     93   O  SGN B   5      12.927  19.604  21.2780  0.00  0.00     0.000 OA
ATOM     94   O  SGN B   5      15.185  20.213  20.4710  0.00  0.00     0.000 OA
ATOM     95   O  SGN B   5      14.699  17.938  20.9080  0.00  0.00     0.000 OA
ENDBRANCH 83 92
BRANCH 86 96
ATOM     96   C  SGN B   5      18.573  20.626  26.4470  0.00  0.00     0.000 C
ATOM     97   O  SGN B   5      18.606  19.993  27.7290  0.00  0.00     0.000 O
ATOM     98   S  SGN B   5      20.051  19.855  28.4100  0.00  0.00     0.000 S
ATOM     99   O  SGN B   5      19.734  19.382  29.7360  0.00  0.00     0.000 OA
ATOM    100   O  SGN B   5      20.808  18.948  27.6240  0.00  0.00     0.000 OA
ATOM    101   O  SGN B   5      20.580  21.180  28.3940  0.00  0.00     0.000 OA
ENDBRANCH 86 96
BRANCH 82 102
ATOM    102  O4  IDS B   6      15.304  18.483  25.1030  0.00  0.00     0.000 O
BRANCH 102 106
ATOM    103  C1  IDS B   6      12.766  16.677  26.9880  0.00  0.00     0.000 C
ATOM    104  C2  IDS B   6      12.376  17.827  26.0470  0.00  0.00     0.000 C
ATOM    105  C3  IDS B   6      13.210  19.086  26.1890  0.00  0.00     0.000 C
ATOM    106  C4  IDS B   6      14.687  18.792  26.3790  0.00  0.00     0.000 C
ATOM    107  C5  IDS B   6      14.861  17.631  27.3640  0.00  0.00     0.000 C
ATOM    108  O5  IDS B   6      14.163  16.461  26.9370  0.00  0.00     0.000 O
ATOM    109   O  IDS B   6      12.700  19.831  27.2830  0.00  0.00     0.000 O
ATOM    111  HD  IDS B   6      12.290  19.240  27.7650  0.00  0.00     0.000 HD
BRANCH 104 111
ATOM    111   O  IDS B   6      12.565  17.392  24.6540  0.00  0.00     0.000 O
ATOM    112   S  IDS B   6      11.260  17.126  23.7650  0.00  0.00     0.000 S
ATOM    113   O  IDS B   6      10.526  16.101  24.4900  0.00  0.00     0.000 OA
ATOM    114   O  IDS B   6      10.542  18.395  23.6030  0.00  0.00     0.000 OA
ATOM    115   O  IDS B   6      11.896  16.649  22.5550  0.00  0.00     0.000 OA
ENDBRANCH 104 111
BRANCH 107 116
ATOM    116   C  IDS B   6      16.345  17.321  27.5190  0.00  0.00     0.000 C
ATOM    117   O  IDS B   6      16.854  17.619  28.5690  0.00  0.00     0.000 OA
ATOM    118   O  IDS B   6      16.983  16.803  26.6160  0.00  0.00     0.000 OA
ENDBRANCH 107 116
BRANCH 103 119
ATOM    119  O4  SGN B   7      12.142  16.990  28.1530  0.00  0.00     0.000 O
BRANCH 119 123
ATOM    120  C1  SGN B   7      11.013  14.960  31.6310  0.00  0.00     0.000 C
ATOM    121  C2  SGN B   7      12.520  15.087  31.3360  0.00  0.00     0.000 C
ATOM    122  C3  SGN B   7      12.772  16.174  30.2830  0.00  0.00     0.000 C
ATOM    123  C4  SGN B   7      11.925  15.901  29.0510  0.00  0.00     0.000 C
ATOM    124  C5  SGN B   7      10.445  15.784  29.4500  0.00  0.00     0.000 C
ATOM    125  O5  SGN B   7      10.254  14.750  30.4410  0.00  0.00     0.000 O
ATOM    126   O  SGN B   7      14.167  16.197  29.9620  0.00  0.00     0.000 O
ATOM    128  HD  SGN B   7      13.536  15.905  30.4780  0.00  0.00     0.000 HD
BRANCH 121 130
ATOM    128   N  SGN B   7      12.992  13.992  32.1880  0.00  0.00     0.000 N
ATOM    130  HD  SGN B   7      13.770  14.023  31.8080  0.00  0.00     0.000 HD
ATOM    130   S  SGN B   7      14.026  14.230  33.3990  0.00  0.00     0.000 S
ATOM    131   O  SGN B   7      13.476  15.304  34.1530  0.00  0.00     0.000 OA
ATOM    132   O  SGN B   7      14.286  12.980  34.0160  0.00  0.00     0.000 OA
ATOM    133   O  SGN B   7      15.331  14.553  32.5940  0.00  0.00     0.000 OA
ENDBRANCH 121 130
BRANCH 124 134
ATOM    134   C  SGN B   7       9.539  15.400  28.3170  0.00  0.00     0.000 C
ATOM    135   O  SGN B   7       8.232  15.944  28.5710  0.00  0.00     0.000 O
ATOM    136   S  SGN B   7       7.172  15.783  27.4230  0.00  0.00     0.000 S
ATOM    137   O  SGN B   7       5.930  16.303  27.9420  0.00  0.00     0.000 OA
ATOM    138   O  SGN B   7       7.121  14.364  27.1510  0.00  0.00     0.000 OA
ATOM    139   O  SGN B   7       7.747  16.581  26.3520  0.00  0.00     0.000 OA
ENDBRANCH 124 134
BRANCH 120 140
ATOM    140  O4  IDS B   8      10.215  15.847  32.2350  0.00  0.00     0.000 O
BRANCH 140 144
ATOM    141  C1  IDS B   8       8.813  19.047  33.1020  0.00  0.00     0.000 C
ATOM    142  C2  IDS B   8      10.340  18.884  32.8540  0.00  0.00     0.000 C
ATOM    143  C3  IDS B   8      10.950  17.692  33.6140  0.00  0.00     0.000 C
ATOM    144  C4  IDS B   8      10.071  16.446  33.5280  0.00  0.00     0.000 C
ATOM    145  C5  IDS B   8       8.601  16.817  33.7770  0.00  0.00     0.000 C
ATOM    146  O5  IDS B   8       8.147  17.814  32.8640  0.00  0.00     0.000 O
BRANCH 142 147
ATOM    147   O  IDS B   8      10.585  18.653  31.4060  0.00  0.00     0.000 O
ATOM    148   S  IDS B   8      11.089  19.856  30.4420  0.00  0.00     0.000 S
ATOM    149   O  IDS B   8      10.851  21.103  31.1350  0.00  0.00     0.000 OA
ATOM    150   O  IDS B   8      12.499  19.603  30.2110  0.00  0.00     0.000 OA
ATOM    151   O  IDS B   8      10.287  19.744  29.2390  0.00  0.00     0.000 OA
ENDBRANCH 142 147
BRANCH 145 152
ATOM    152   C  IDS B   8       7.664  15.638  33.6070  0.00  0.00     0.000 C
ATOM    153   O  IDS B   8       7.718  14.705  34.4000  0.00  0.00     0.000 OA
ATOM    154   O  IDS B   8       6.854  15.639  32.6980  0.00  0.00     0.000 OA
ENDBRANCH 145 152
ENDBRANCH 140 144
ENDBRANCH 120 140
ENDBRANCH 119 123
ENDBRANCH 103 119
ENDBRANCH 102 106
ENDBRANCH 82 102
ENDBRANCH 81 85
ENDBRANCH 65 81
ENDBRANCH 64 68
ENDBRANCH 41 64
ENDBRANCH 40 44
ENDBRANCH 24 40
ENDBRANCH 23 27
ENDBRANCH 1 23
TORSDOF 31
ENDMDL
MODEL 24
REMARK VINA RESULT:      -7.3      5.339      8.664
ROOT
ATOM      1  C1  SGN B   1      25.990  17.828  13.5490  0.00  0.00     0.000 C
ATOM      2  C2  SGN B   1      24.866  18.083  12.5320  0.00  0.00     0.000 C
ATOM      3  C3  SGN B   1      23.795  16.991  12.6220  0.00  0.00     0.000 C
ATOM      4  C4  SGN B   1      24.429  15.616  12.4390  0.00  0.00     0.000 C
ATOM      5  C5  SGN B   1      25.624  15.488  13.3810  0.00  0.00     0.000 C
ATOM      6  O5  SGN B   1      26.537  16.578  13.1510  0.00  0.00     0.000 O
ATOM      7   O  SGN B   1      22.779  17.205  11.6500  0.00  0.00     0.000 O
ATOM      9  HD  SGN B   1      23.480  17.102  11.1520  0.00  0.00     0.000 HD
ATOM      9   O  SGN B   1      23.471  14.614  12.7270  0.00  0.00     0.000 O
ATOM     11  HD  SGN B   1      24.172  14.510  12.2290  0.00  0.00     0.000 HD
ENDROOT
BRANCH 2 13
ATOM     11   N  SGN B   1      25.428  19.319  11.9540  0.00  0.00     0.000 N
ATOM     13  HD  SGN B   1      25.206  19.285  12.7910  0.00  0.00     0.000 HD
ATOM     13   S  SGN B   1      25.073  20.777  12.5340  0.00  0.00     0.000 S
ATOM     14   O  SGN B   1      24.225  20.661  13.6560  0.00  0.00     0.000 OA
ATOM     15   O  SGN B   1      26.280  21.524  12.6440  0.00  0.00     0.000 OA
ATOM     16   O  SGN B   1      24.301  21.328  11.2950  0.00  0.00     0.000 OA
ENDBRANCH 2 13
BRANCH 5 17
ATOM     17   C  SGN B   1      26.403  14.207  13.2140  0.00  0.00     0.000 C
ATOM     18   O  SGN B   1      27.822  14.460  13.2410  0.00  0.00     0.000 O
ATOM     19   S  SGN B   1      28.688  13.724  12.1160  0.00  0.00     0.000 S
ATOM     20   O  SGN B   1      30.066  13.944  12.4990  0.00  0.00     0.000 OA
ATOM     21   O  SGN B   1      28.277  12.342  12.2030  0.00  0.00     0.000 OA
ATOM     22   O  SGN B   1      28.320  14.369  10.8750  0.00  0.00     0.000 OA
ENDBRANCH 5 17
BRANCH 1 23
ATOM     23  O4  IDS B   2      26.332  18.118  14.8370  0.00  0.00     0.000 O
BRANCH 23 27
ATOM     24  C1  IDS B   2      25.609  18.985  18.8320  0.00  0.00     0.000 C
ATOM     25  C2  IDS B   2      24.409  19.181  17.8790  0.00  0.00     0.000 C
ATOM     26  C3  IDS B   2      24.689  18.559  16.5130  0.00  0.00     0.000 C
ATOM     27  C4  IDS B   2      25.975  19.060  15.8700  0.00  0.00     0.000 C
ATOM     28  C5  IDS B   2      27.058  19.265  16.9480  0.00  0.00     0.000 C
ATOM     29  O5  IDS B   2      26.760  18.516  18.1170  0.00  0.00     0.000 O
ATOM     30   O  IDS B   2      23.618  18.868  15.6300  0.00  0.00     0.000 O
ATOM     32  HD  IDS B   2      23.662  19.671  15.3070  0.00  0.00     0.000 HD
BRANCH 25 32
ATOM     32   O  IDS B   2      23.167  18.564  18.4060  0.00  0.00     0.000 O
ATOM     33   S  IDS B   2      21.861  19.472  18.8440  0.00  0.00     0.000 S
ATOM     34   O  IDS B   2      20.942  18.564  19.5120  0.00  0.00     0.000 OA
ATOM     35   O  IDS B   2      22.291  20.542  19.7330  0.00  0.00     0.000 OA
ATOM     36   O  IDS B   2      21.302  19.973  17.6100  0.00  0.00     0.000 OA
ENDBRANCH 25 32
BRANCH 28 37
ATOM     37   C  IDS B   2      28.525  18.990  16.5570  0.00  0.00     0.000 C
ATOM     38   O  IDS B   2      28.890  17.879  16.8620  0.00  0.00     0.000 OA
ATOM     39   O  IDS B   2      29.296  19.756  15.9300  0.00  0.00     0.000 OA
ENDBRANCH 28 37
BRANCH 24 40
ATOM     40  O4  SUS B   3      25.581  19.525  20.0680  0.00  0.00     0.000 O
BRANCH 40 44
ATOM     41  C1  SUS B   3      27.403  18.240  23.6150  0.00  0.00     0.000 C
ATOM     42  C2  SUS B   3      28.282  19.011  22.6090  0.00  0.00     0.000 C
ATOM     43  C3  SUS B   3      27.385  19.794  21.6540  0.00  0.00     0.000 C
ATOM     44  C4  SUS B   3      26.401  18.834  21.0050  0.00  0.00     0.000 C
ATOM     45  C5  SUS B   3      25.538  18.212  22.0840  0.00  0.00     0.000 C
ATOM     46  O5  SUS B   3      26.394  17.458  22.9660  0.00  0.00     0.000 O
BRANCH 42 49
ATOM     47   N  SUS B   3      29.440  18.338  23.2240  0.00  0.00     0.000 N
ATOM     49  HD  SUS B   3      29.326  18.026  24.0240  0.00  0.00     0.000 HD
ATOM     49   S  SUS B   3      30.755  19.253  23.2280  0.00  0.00     0.000 S
ATOM     50   O  SUS B   3      30.496  20.462  23.9050  0.00  0.00     0.000 OA
ATOM     51   O  SUS B   3      31.624  18.313  24.1030  0.00  0.00     0.000 OA
ATOM     52   O  SUS B   3      31.272  19.334  21.9200  0.00  0.00     0.000 OA
ENDBRANCH 42 49
BRANCH 43 53
ATOM     53   O  SUS B   3      28.244  20.406  20.6210  0.00  0.00     0.000 O
ATOM     54   S  SUS B   3      28.312  22.047  20.5780  0.00  0.00     0.000 S
ATOM     55   O  SUS B   3      29.060  22.485  21.7480  0.00  0.00     0.000 OA
ATOM     56   O  SUS B   3      28.971  22.339  19.3180  0.00  0.00     0.000 OA
ATOM     57   O  SUS B   3      26.925  22.521  20.6270  0.00  0.00     0.000 OA
ENDBRANCH 43 53
BRANCH 45 58
ATOM     58   C  SUS B   3      24.464  17.317  21.5060  0.00  0.00     0.000 C
ATOM     59   S  SUS B   3      23.265  15.079  21.8790  0.00  0.00     0.000 S
ATOM     60   O  SUS B   3      24.205  16.235  22.4150  0.00  0.00     0.000 O
ATOM     61   O  SUS B   3      24.106  14.279  21.0100  0.00  0.00     0.000 OA
ATOM     62   O  SUS B   3      22.937  14.408  23.1080  0.00  0.00     0.000 OA
ATOM     63   O  SUS B   3      22.182  15.738  21.2380  0.00  0.00     0.000 OA
ENDBRANCH 45 58
BRANCH 41 64
ATOM     64  O4  IDS B   4      26.936  19.015  24.6480  0.00  0.00     0.000 O
BRANCH 64 68
ATOM     65  C1  IDS B   4      25.921  19.622  28.0940  0.00  0.00     0.000 C
ATOM     66  C2  IDS B   4      27.056  18.637  27.7860  0.00  0.00     0.000 C
ATOM     67  C3  IDS B   4      26.751  17.660  26.6630  0.00  0.00     0.000 C
ATOM     68  C4  IDS B   4      26.014  18.304  25.5040  0.00  0.00     0.000 C
ATOM     69  C5  IDS B   4      24.905  19.194  26.0800  0.00  0.00     0.000 C
ATOM     70  O5  IDS B   4      25.493  20.219  26.8840  0.00  0.00     0.000 O
ATOM     71   O  IDS B   4      25.965  16.623  27.2120  0.00  0.00     0.000 O
ATOM     73  HD  IDS B   4      26.507  17.298  27.2370  0.00  0.00     0.000 HD
BRANCH 66 73
ATOM     73   O  IDS B   4      28.231  19.397  27.3360  0.00  0.00     0.000 O
ATOM     74   S  IDS B   4      29.672  18.665  27.3900  0.00  0.00     0.000 S
ATOM     75   O  IDS B   4      29.865  18.239  28.7600  0.00  0.00     0.000 OA
ATOM     76   O  IDS B   4      30.558  19.724  26.9750  0.00  0.00     0.000 OA
ATOM     77   O  IDS B   4      29.583  17.566  26.4580  0.00  0.00     0.000 OA
ENDBRANCH 66 73
BRANCH 69 78
ATOM     78   C  IDS B   4      23.933  19.740  25.0420  0.00  0.00     0.000 C
ATOM     79   O  IDS B   4      22.815  19.234  24.9560  0.00  0.00     0.000 OA
ATOM     80   O  IDS B   4      24.263  20.747  24.3890  0.00  0.00     0.000 OA
ENDBRANCH 69 78
BRANCH 65 81
ATOM     81  O4  SGN B   5      24.968  18.995  28.8390  0.00  0.00     0.000 O
BRANCH 81 85
ATOM     82  C1  SGN B   5      22.099  19.603  31.8450  0.00  0.00     0.000 C
ATOM     83  C2  SGN B   5      21.705  19.999  30.4140  0.00  0.00     0.000 C
ATOM     84  C3  SGN B   5      22.637  19.303  29.4130  0.00  0.00     0.000 C
ATOM     85  C4  SGN B   5      24.078  19.642  29.7520  0.00  0.00     0.000 C
ATOM     86  C5  SGN B   5      24.356  19.182  31.1810  0.00  0.00     0.000 C
ATOM     87  O5  SGN B   5      23.467  19.881  32.0720  0.00  0.00     0.000 O
ATOM     88   O  SGN B   5      22.318  19.706  28.1000  0.00  0.00     0.000 O
ATOM     90  HD  SGN B   5      22.090  18.954  28.4630  0.00  0.00     0.000 HD
BRANCH 83 92
ATOM     90   N  SGN B   5      20.480  20.317  31.1740  0.00  0.00     0.000 N
ATOM     92  HD  SGN B   5      20.670  20.732  31.9100  0.00  0.00     0.000 HD
ATOM     92   S  SGN B   5      19.228  20.901  30.3720  0.00  0.00     0.000 S
ATOM     93   O  SGN B   5      18.227  21.104  31.3750  0.00  0.00     0.000 OA
ATOM     94   O  SGN B   5      19.727  22.006  29.6280  0.00  0.00     0.000 OA
ATOM     95   O  SGN B   5      18.867  19.816  29.3800  0.00  0.00     0.000 OA
ENDBRANCH 83 92
BRANCH 86 96
ATOM     96   C  SGN B   5      25.770  19.446  31.6540  0.00  0.00     0.000 C
ATOM     97   O  SGN B   5      26.217  18.395  32.5140  0.00  0.00     0.000 O
ATOM     98   S  SGN B   5      27.637  17.743  32.1540  0.00  0.00     0.000 S
ATOM     99   O  SGN B   5      27.892  16.889  33.2890  0.00  0.00     0.000 OA
ATOM    100   O  SGN B   5      27.491  17.060  30.9200  0.00  0.00     0.000 OA
ATOM    101   O  SGN B   5      28.527  18.855  32.0730  0.00  0.00     0.000 OA
ENDBRANCH 86 96
BRANCH 82 102
ATOM    102  O4  IDS B   6      21.828  18.296  32.1200  0.00  0.00     0.000 O
BRANCH 102 106
ATOM    103  C1  IDS B   6      20.203  15.962  34.3940  0.00  0.00     0.000 C
ATOM    104  C2  IDS B   6      19.754  17.430  34.3210  0.00  0.00     0.000 C
ATOM    105  C3  IDS B   6      20.877  18.448  34.3570  0.00  0.00     0.000 C
ATOM    106  C4  IDS B   6      22.076  18.029  33.5240  0.00  0.00     0.000 C
ATOM    107  C5  IDS B   6      22.370  16.543  33.7520  0.00  0.00     0.000 C
ATOM    108  O5  IDS B   6      21.237  15.724  33.4580  0.00  0.00     0.000 O
ATOM    109   O  IDS B   6      21.250  18.647  35.7110  0.00  0.00     0.000 O
ATOM    111  HD  IDS B   6      20.988  17.923  36.1080  0.00  0.00     0.000 HD
BRANCH 104 111
ATOM    111   O  IDS B   6      19.064  17.658  33.0420  0.00  0.00     0.000 O
ATOM    112   S  IDS B   6      17.477  17.866  33.0690  0.00  0.00     0.000 S
ATOM    113   O  IDS B   6      16.959  16.653  33.6820  0.00  0.00     0.000 OA
ATOM    114   O  IDS B   6      17.183  19.099  33.8090  0.00  0.00     0.000 OA
ATOM    115   O  IDS B   6      17.229  17.958  31.6470  0.00  0.00     0.000 OA
ENDBRANCH 104 111
BRANCH 107 116
ATOM    116   C  IDS B   6      23.550  16.124  32.8850  0.00  0.00     0.000 C
ATOM    117   O  IDS B   6      24.589  15.904  33.4540  0.00  0.00     0.000 OA
ATOM    118   O  IDS B   6      23.445  16.026  31.6730  0.00  0.00     0.000 OA
ENDBRANCH 107 116
BRANCH 103 119
ATOM    119  O4  SGN B   7      20.389  15.749  35.7220  0.00  0.00     0.000 O
BRANCH 119 123
ATOM    120  C1  SGN B   7      20.942  12.430  38.2050  0.00  0.00     0.000 C
ATOM    121  C2  SGN B   7      22.174  12.973  37.4560  0.00  0.00     0.000 C
ATOM    122  C3  SGN B   7      21.902  14.388  36.9300  0.00  0.00     0.000 C
ATOM    123  C4  SGN B   7      20.627  14.393  36.1040  0.00  0.00     0.000 C
ATOM    124  C5  SGN B   7      19.463  13.829  36.9360  0.00  0.00     0.000 C
ATOM    125  O5  SGN B   7      19.761  12.496  37.4080  0.00  0.00     0.000 O
ATOM    126   O  SGN B   7      23.027  14.822  36.1570  0.00  0.00     0.000 O
ATOM    128  HD  SGN B   7      22.689  14.238  36.7000  0.00  0.00     0.000 HD
BRANCH 121 130
ATOM    128   N  SGN B   7      22.877  12.095  38.3940  0.00  0.00     0.000 N
ATOM    130  HD  SGN B   7      22.931  11.478  37.7880  0.00  0.00     0.000 HD
ATOM    130   S  SGN B   7      24.452  11.787  38.2670  0.00  0.00     0.000 S
ATOM    131   O  SGN B   7      25.073  13.062  38.1500  0.00  0.00     0.000 OA
ATOM    132   O  SGN B   7      24.821  10.904  39.3140  0.00  0.00     0.000 OA
ATOM    133   O  SGN B   7      24.462  10.897  36.9780  0.00  0.00     0.000 OA
ENDBRANCH 121 130
BRANCH 124 134
ATOM    134   C  SGN B   7      18.182  13.686  36.1680  0.00  0.00     0.000 C
ATOM    135   O  SGN B   7      18.284  12.530  35.3190  0.00  0.00     0.000 O
ATOM    136   S  SGN B   7      16.983  12.116  34.5410  0.00  0.00     0.000 S
ATOM    137   O  SGN B   7      17.354  11.011  33.6890  0.00  0.00     0.000 OA
ATOM    138   O  SGN B   7      16.594  13.294  33.8010  0.00  0.00     0.000 OA
ATOM    139   O  SGN B   7      16.076  11.753  35.6190  0.00  0.00     0.000 OA
ENDBRANCH 124 134
BRANCH 120 140
ATOM    140  O4  IDS B   8      20.434  12.853  39.3680  0.00  0.00     0.000 O
BRANCH 140 144
ATOM    141  C1  IDS B   8      19.361  15.152  41.9220  0.00  0.00     0.000 C
ATOM    142  C2  IDS B   8      20.639  15.431  41.0810  0.00  0.00     0.000 C
ATOM    143  C3  IDS B   8      21.585  14.218  40.9990  0.00  0.00     0.000 C
ATOM    144  C4  IDS B   8      20.826  12.916  40.7450  0.00  0.00     0.000 C
ATOM    145  C5  IDS B   8      19.588  12.839  41.6510  0.00  0.00     0.000 C
ATOM    146  O5  IDS B   8      18.729  13.962  41.4670  0.00  0.00     0.000 O
BRANCH 142 147
ATOM    147   O  IDS B   8      20.250  15.779  39.6890  0.00  0.00     0.000 O
ATOM    148   S  IDS B   8      20.229  17.322  39.1890  0.00  0.00     0.000 S
ATOM    149   O  IDS B   8      20.248  18.164  40.3630  0.00  0.00     0.000 OA
ATOM    150   O  IDS B   8      21.415  17.478  38.3660  0.00  0.00     0.000 OA
ATOM    151   O  IDS B   8      18.995  17.464  38.4400  0.00  0.00     0.000 OA
ENDBRANCH 142 147
BRANCH 145 152
ATOM    152   C  IDS B   8      18.739  11.615  41.3740  0.00  0.00     0.000 C
ATOM    153   O  IDS B   8      19.185  10.501  41.6230  0.00  0.00     0.000 OA
ATOM    154   O  IDS B   8      17.614  11.751  40.9270  0.00  0.00     0.000 OA
ENDBRANCH 145 152
ENDBRANCH 140 144
ENDBRANCH 120 140
ENDBRANCH 119 123
ENDBRANCH 103 119
ENDBRANCH 102 106
ENDBRANCH 82 102
ENDBRANCH 81 85
ENDBRANCH 65 81
ENDBRANCH 64 68
ENDBRANCH 41 64
ENDBRANCH 40 44
ENDBRANCH 24 40
ENDBRANCH 23 27
ENDBRANCH 1 23
TORSDOF 31
ENDMDL
MODEL 25
REMARK VINA RESULT:      -7.2      2.965      4.978
ROOT
ATOM      1  C1  SGN B   1      28.702  11.329  13.6460  0.00  0.00     0.000 C
ATOM      2  C2  SGN B   1      30.189  10.965  13.7870  0.00  0.00     0.000 C
ATOM      3  C3  SGN B   1      30.557   9.812  12.8480  0.00  0.00     0.000 C
ATOM      4  C4  SGN B   1      29.649   8.613  13.1060  0.00  0.00     0.000 C
ATOM      5  C5  SGN B   1      28.194   9.076  13.0910  0.00  0.00     0.000 C
ATOM      6  O5  SGN B   1      28.020  10.146  14.0400  0.00  0.00     0.000 O
ATOM      7   O  SGN B   1      31.922   9.448  13.0140  0.00  0.00     0.000 O
ATOM      9  HD  SGN B   1      31.602   9.295  13.8040  0.00  0.00     0.000 HD
ATOM      9   O  SGN B   1      29.862   7.637  12.1030  0.00  0.00     0.000 O
ATOM     11  HD  SGN B   1      29.542   7.484  12.8930  0.00  0.00     0.000 HD
ENDROOT
BRANCH 2 13
ATOM     11   N  SGN B   1      30.560  11.955  14.8160  0.00  0.00     0.000 N
ATOM     13  HD  SGN B   1      30.239  12.212  14.0540  0.00  0.00     0.000 HD
ATOM     13   S  SGN B   1      31.037  13.446  14.4420  0.00  0.00     0.000 S
ATOM     14   O  SGN B   1      30.985  13.636  13.0450  0.00  0.00     0.000 OA
ATOM     15   O  SGN B   1      30.363  14.363  15.2990  0.00  0.00     0.000 OA
ATOM     16   O  SGN B   1      32.510  13.342  14.9460  0.00  0.00     0.000 OA
ENDBRANCH 2 13
BRANCH 5 17
ATOM     17   C  SGN B   1      27.202   7.996  13.4440  0.00  0.00     0.000 C
ATOM     18   O  SGN B   1      26.250   7.803  12.3790  0.00  0.00     0.000 O
ATOM     19   S  SGN B   1      24.718   7.684  12.8210  0.00  0.00     0.000 S
ATOM     20   O  SGN B   1      24.014   7.267  11.6260  0.00  0.00     0.000 OA
ATOM     21   O  SGN B   1      24.729   6.685  13.8640  0.00  0.00     0.000 OA
ATOM     22   O  SGN B   1      24.352   9.007  13.2770  0.00  0.00     0.000 OA
ENDBRANCH 5 17
BRANCH 1 23
ATOM     23  O4  IDS B   2      27.880  12.144  12.9250  0.00  0.00     0.000 O
BRANCH 23 27
ATOM     24  C1  IDS B   2      25.445  14.877  14.8830  0.00  0.00     0.000 C
ATOM     25  C2  IDS B   2      24.975  13.406  14.9360  0.00  0.00     0.000 C
ATOM     26  C3  IDS B   2      26.075  12.464  14.4550  0.00  0.00     0.000 C
ATOM     27  C4  IDS B   2      26.608  12.809  13.0710  0.00  0.00     0.000 C
ATOM     28  C5  IDS B   2      26.664  14.340  12.8950  0.00  0.00     0.000 C
ATOM     29  O5  IDS B   2      26.673  14.996  14.1540  0.00  0.00     0.000 O
ATOM     30   O  IDS B   2      25.564  11.137  14.4000  0.00  0.00     0.000 O
ATOM     32  HD  IDS B   2      25.084  10.985  13.6960  0.00  0.00     0.000 HD
BRANCH 25 32
ATOM     32   O  IDS B   2      24.595  12.988  16.3080  0.00  0.00     0.000 O
ATOM     33   S  IDS B   2      23.240  12.093  16.6020  0.00  0.00     0.000 S
ATOM     34   O  IDS B   2      23.074  12.071  18.0470  0.00  0.00     0.000 OA
ATOM     35   O  IDS B   2      22.098  12.713  15.9450  0.00  0.00     0.000 OA
ATOM     36   O  IDS B   2      23.523  10.774  16.0850  0.00  0.00     0.000 OA
ENDBRANCH 25 32
BRANCH 28 37
ATOM     37   C  IDS B   2      27.803  14.925  12.0340  0.00  0.00     0.000 C
ATOM     38   O  IDS B   2      28.462  15.746  12.6270  0.00  0.00     0.000 OA
ATOM     39   O  IDS B   2      28.117  14.587  10.8670  0.00  0.00     0.000 OA
ENDBRANCH 28 37
BRANCH 24 40
ATOM     40  O4  SUS B   3      24.589  15.869  15.2060  0.00  0.00     0.000 O
BRANCH 40 44
ATOM     41  C1  SUS B   3      25.341  19.621  16.9080  0.00  0.00     0.000 C
ATOM     42  C2  SUS B   3      25.516  19.492  15.3820  0.00  0.00     0.000 C
ATOM     43  C3  SUS B   3      24.760  18.259  14.8920  0.00  0.00     0.000 C
ATOM     44  C4  SUS B   3      25.238  17.045  15.6740  0.00  0.00     0.000 C
ATOM     45  C5  SUS B   3      24.928  17.255  17.1420  0.00  0.00     0.000 C
ATOM     46  O5  SUS B   3      25.665  18.409  17.5970  0.00  0.00     0.000 O
BRANCH 42 49
ATOM     47   N  SUS B   3      25.141  20.811  14.8440  0.00  0.00     0.000 N
ATOM     49  HD  SUS B   3      24.476  20.828  14.2890  0.00  0.00     0.000 HD
ATOM     49   S  SUS B   3      26.375  21.574  14.1650  0.00  0.00     0.000 S
ATOM     50   O  SUS B   3      26.922  20.781  13.1360  0.00  0.00     0.000 OA
ATOM     51   O  SUS B   3      25.555  22.749  13.5720  0.00  0.00     0.000 OA
ATOM     52   O  SUS B   3      27.249  22.035  15.1690  0.00  0.00     0.000 OA
ENDBRANCH 42 49
BRANCH 43 53
ATOM     53   O  SUS B   3      25.061  18.081  13.4580  0.00  0.00     0.000 O
ATOM     54   S  SUS B   3      23.830  18.333  12.3970  0.00  0.00     0.000 S
ATOM     55   O  SUS B   3      23.563  19.765  12.3720  0.00  0.00     0.000 OA
ATOM     56   O  SUS B   3      24.336  17.809  11.1410  0.00  0.00     0.000 OA
ATOM     57   O  SUS B   3      22.679  17.587  12.9130  0.00  0.00     0.000 OA
ENDBRANCH 43 53
BRANCH 45 58
ATOM     58   C  SUS B   3      25.285  16.044  17.9750  0.00  0.00     0.000 C
ATOM     59   S  SUS B   3      24.763  14.886  20.2050  0.00  0.00     0.000 S
ATOM     60   O  SUS B   3      24.401  15.967  19.1060  0.00  0.00     0.000 O
ATOM     61   O  SUS B   3      25.849  15.470  20.9690  0.00  0.00     0.000 OA
ATOM     62   O  SUS B   3      23.530  14.831  20.9430  0.00  0.00     0.000 OA
ATOM     63   O  SUS B   3      25.093  13.707  19.4840  0.00  0.00     0.000 OA
ENDBRANCH 45 58
BRANCH 41 64
ATOM     64  O4  IDS B   4      24.142  20.177  17.2820  0.00  0.00     0.000 O
BRANCH 64 68
ATOM     65  C1  IDS B   4      22.554  22.449  19.6470  0.00  0.00     0.000 C
ATOM     66  C2  IDS B   4      24.080  22.438  19.4920  0.00  0.00     0.000 C
ATOM     67  C3  IDS B   4      24.700  21.050  19.4850  0.00  0.00     0.000 C
ATOM     68  C4  IDS B   4      23.883  20.044  18.6970  0.00  0.00     0.000 C
ATOM     69  C5  IDS B   4      22.406  20.231  19.0690  0.00  0.00     0.000 C
ATOM     70  O5  IDS B   4      21.994  21.551  18.7060  0.00  0.00     0.000 O
ATOM     71   O  IDS B   4      24.806  20.631  20.8300  0.00  0.00     0.000 O
ATOM     73  HD  IDS B   4      24.708  21.206  20.1900  0.00  0.00     0.000 HD
BRANCH 66 73
ATOM     73   O  IDS B   4      24.429  23.029  18.1930  0.00  0.00     0.000 O
ATOM     74   S  IDS B   4      25.322  24.377  18.1890  0.00  0.00     0.000 S
ATOM     75   O  IDS B   4      24.603  25.347  18.9870  0.00  0.00     0.000 OA
ATOM     76   O  IDS B   4      25.372  24.695  16.7840  0.00  0.00     0.000 OA
ATOM     77   O  IDS B   4      26.594  23.999  18.7580  0.00  0.00     0.000 OA
ENDBRANCH 66 73
BRANCH 69 78
ATOM     78   C  IDS B   4      21.479  19.151  18.5290  0.00  0.00     0.000 C
ATOM     79   O  IDS B   4      21.917  18.010  18.3940  0.00  0.00     0.000 OA
ATOM     80   O  IDS B   4      20.281  19.433  18.3420  0.00  0.00     0.000 OA
ENDBRANCH 69 78
BRANCH 65 81
ATOM     81  O4  SGN B   5      22.230  22.249  20.9540  0.00  0.00     0.000 O
BRANCH 81 85
ATOM     82  C1  SGN B   5      19.136  22.868  23.7270  0.00  0.00     0.000 C
ATOM     83  C2  SGN B   5      18.725  22.501  22.2930  0.00  0.00     0.000 C
ATOM     84  C3  SGN B   5      19.918  21.869  21.5620  0.00  0.00     0.000 C
ATOM     85  C4  SGN B   5      21.101  22.820  21.6200  0.00  0.00     0.000 C
ATOM     86  C5  SGN B   5      21.429  23.090  23.0860  0.00  0.00     0.000 C
ATOM     87  O5  SGN B   5      20.282  23.698  23.7120  0.00  0.00     0.000 O
ATOM     88   O  SGN B   5      19.565  21.582  20.2270  0.00  0.00     0.000 O
ATOM     90  HD  SGN B   5      19.609  21.004  20.8700  0.00  0.00     0.000 HD
BRANCH 83 92
ATOM     90   N  SGN B   5      17.423  22.552  22.9860  0.00  0.00     0.000 N
ATOM     92  HD  SGN B   5      17.391  23.217  23.5390  0.00  0.00     0.000 HD
ATOM     92   S  SGN B   5      16.100  22.329  22.1170  0.00  0.00     0.000 S
ATOM     93   O  SGN B   5      15.031  22.443  23.0640  0.00  0.00     0.000 OA
ATOM     94   O  SGN B   5      16.193  23.245  21.0320  0.00  0.00     0.000 OA
ATOM     95   O  SGN B   5      16.246  20.936  21.5460  0.00  0.00     0.000 OA
ENDBRANCH 83 92
BRANCH 86 96
ATOM     96   C  SGN B   5      22.605  24.020  23.2990  0.00  0.00     0.000 C
ATOM     97   O  SGN B   5      22.582  25.084  22.3440  0.00  0.00     0.000 O
ATOM     98   S  SGN B   5      22.718  26.568  22.9380  0.00  0.00     0.000 S
ATOM     99   O  SGN B   5      22.866  27.373  21.7490  0.00  0.00     0.000 OA
ATOM    100   O  SGN B   5      21.545  26.834  23.6910  0.00  0.00     0.000 OA
ATOM    101   O  SGN B   5      23.896  26.523  23.7410  0.00  0.00     0.000 OA
ENDBRANCH 86 96
BRANCH 82 102
ATOM    102  O4  IDS B   6      19.354  21.772  24.5070  0.00  0.00     0.000 O
BRANCH 102 106
ATOM    103  C1  IDS B   6      18.259  20.011  27.4990  0.00  0.00     0.000 C
ATOM    104  C2  IDS B   6      17.345  21.039  26.8140  0.00  0.00     0.000 C
ATOM    105  C3  IDS B   6      18.013  22.353  26.4540  0.00  0.00     0.000 C
ATOM    106  C4  IDS B   6      19.415  22.166  25.9010  0.00  0.00     0.000 C
ATOM    107  C5  IDS B   6      20.163  21.118  26.7310  0.00  0.00     0.000 C
ATOM    108  O5  IDS B   6      19.465  19.873  26.7720  0.00  0.00     0.000 O
ATOM    109   O  IDS B   6      18.034  23.169  27.6140  0.00  0.00     0.000 O
ATOM    111  HD  IDS B   6      17.974  22.604  28.2680  0.00  0.00     0.000 HD
BRANCH 104 111
ATOM    111   O  IDS B   6      16.870  20.483  25.5380  0.00  0.00     0.000 O
ATOM    112   S  IDS B   6      15.453  19.738  25.5230  0.00  0.00     0.000 S
ATOM    113   O  IDS B   6      15.596  18.660  26.4900  0.00  0.00     0.000 OA
ATOM    114   O  IDS B   6      14.410  20.717  25.8480  0.00  0.00     0.000 OA
ATOM    115   O  IDS B   6      15.437  19.294  24.1460  0.00  0.00     0.000 OA
ENDBRANCH 104 111
BRANCH 107 116
ATOM    116   C  IDS B   6      21.554  20.912  26.1460  0.00  0.00     0.000 C
ATOM    117   O  IDS B   6      21.655  20.101  25.2600  0.00  0.00     0.000 OA
ATOM    118   O  IDS B   6      22.518  21.533  26.5650  0.00  0.00     0.000 OA
ENDBRANCH 107 116
BRANCH 103 119
ATOM    119  O4  SGN B   7      18.258  20.397  28.8010  0.00  0.00     0.000 O
BRANCH 119 123
ATOM    120  C1  SGN B   7      18.896  18.518  32.4820  0.00  0.00     0.000 C
ATOM    121  C2  SGN B   7      20.116  19.144  31.7800  0.00  0.00     0.000 C
ATOM    122  C3  SGN B   7      19.664  20.118  30.6830  0.00  0.00     0.000 C
ATOM    123  C4  SGN B   7      18.703  19.416  29.7380  0.00  0.00     0.000 C
ATOM    124  C5  SGN B   7      17.529  18.822  30.5340  0.00  0.00     0.000 C
ATOM    125  O5  SGN B   7      18.000  17.912  31.5530  0.00  0.00     0.000 O
ATOM    126   O  SGN B   7      20.818  20.604  29.9880  0.00  0.00     0.000 O
ATOM    128  HD  SGN B   7      20.496  20.167  30.6630  0.00  0.00     0.000 HD
BRANCH 121 130
ATOM    128   N  SGN B   7      21.032  18.422  32.6670  0.00  0.00     0.000 N
ATOM    130  HD  SGN B   7      21.641  18.425  32.0510  0.00  0.00     0.000 HD
ATOM    130   S  SGN B   7      22.302  19.134  33.3550  0.00  0.00     0.000 S
ATOM    131   O  SGN B   7      21.785  20.316  33.9560  0.00  0.00     0.000 OA
ATOM    132   O  SGN B   7      22.983  18.169  34.1400  0.00  0.00     0.000 OA
ATOM    133   O  SGN B   7      23.219  19.344  32.1030  0.00  0.00     0.000 OA
ENDBRANCH 121 130
BRANCH 124 134
ATOM    134   C  SGN B   7      16.582  18.009  29.7010  0.00  0.00     0.000 C
ATOM    135   O  SGN B   7      16.203  16.841  30.4490  0.00  0.00     0.000 O
ATOM    136   S  SGN B   7      15.092  15.931  29.8110  0.00  0.00     0.000 S
ATOM    137   O  SGN B   7      14.959  14.785  30.6780  0.00  0.00     0.000 OA
ATOM    138   O  SGN B   7      15.590  15.591  28.4980  0.00  0.00     0.000 OA
ATOM    139   O  SGN B   7      13.933  16.809  29.8070  0.00  0.00     0.000 OA
ENDBRANCH 124 134
BRANCH 120 140
ATOM    140  O4  IDS B   8      18.002  19.123  33.2720  0.00  0.00     0.000 O
BRANCH 140 144
ATOM    141  C1  IDS B   8      17.098  19.656  36.7160  0.00  0.00     0.000 C
ATOM    142  C2  IDS B   8      17.725  18.310  36.2530  0.00  0.00     0.000 C
ATOM    143  C3  IDS B   8      17.045  17.727  35.0000  0.00  0.00     0.000 C
ATOM    144  C4  IDS B   8      16.778  18.797  33.9430  0.00  0.00     0.000 C
ATOM    145  C5  IDS B   8      16.185  20.053  34.5980  0.00  0.00     0.000 C
ATOM    146  O5  IDS B   8      17.034  20.564  35.6230  0.00  0.00     0.000 O
BRANCH 142 147
ATOM    147   O  IDS B   8      19.158  18.519  35.9180  0.00  0.00     0.000 O
ATOM    148   S  IDS B   8      20.333  17.902  36.8500  0.00  0.00     0.000 S
ATOM    149   O  IDS B   8      19.741  17.538  38.1180  0.00  0.00     0.000 OA
ATOM    150   O  IDS B   8      20.844  16.757  36.1200  0.00  0.00     0.000 OA
ATOM    151   O  IDS B   8      21.307  18.968  36.9930  0.00  0.00     0.000 OA
ENDBRANCH 142 147
BRANCH 145 152
ATOM    152   C  IDS B   8      15.990  21.188  33.6140  0.00  0.00     0.000 C
ATOM    153   O  IDS B   8      16.894  21.997  33.4370  0.00  0.00     0.000 OA
ATOM    154   O  IDS B   8      14.946  21.274  32.9930  0.00  0.00     0.000 OA
ENDBRANCH 145 152
ENDBRANCH 140 144
ENDBRANCH 120 140
ENDBRANCH 119 123
ENDBRANCH 103 119
ENDBRANCH 102 106
ENDBRANCH 82 102
ENDBRANCH 81 85
ENDBRANCH 65 81
ENDBRANCH 64 68
ENDBRANCH 41 64
ENDBRANCH 40 44
ENDBRANCH 24 40
ENDBRANCH 23 27
ENDBRANCH 1 23
TORSDOF 31
ENDMDL
MODEL 26
REMARK VINA RESULT:      -7.2     10.063     13.788
ROOT
ATOM      1  C1  SGN B   1      29.414  10.688  15.6810  0.00  0.00     0.000 C
ATOM      2  C2  SGN B   1      30.876  10.293  15.4190  0.00  0.00     0.000 C
ATOM      3  C3  SGN B   1      31.076   9.891  13.9530  0.00  0.00     0.000 C
ATOM      4  C4  SGN B   1      30.107   8.775  13.5770  0.00  0.00     0.000 C
ATOM      5  C5  SGN B   1      28.695   9.178  13.9940  0.00  0.00     0.000 C
ATOM      6  O5  SGN B   1      28.682   9.503  15.3980  0.00  0.00     0.000 O
ATOM      7   O  SGN B   1      32.420   9.484  13.7250  0.00  0.00     0.000 O
ATOM      9  HD  SGN B   1      32.158   8.905  14.3140  0.00  0.00     0.000 HD
ATOM      9   O  SGN B   1      30.160   8.558  12.1790  0.00  0.00     0.000 O
ATOM     11  HD  SGN B   1      29.898   7.979  12.7680  0.00  0.00     0.000 HD
ENDROOT
BRANCH 2 13
ATOM     11   N  SGN B   1      31.353  10.517  16.7970  0.00  0.00     0.000 N
ATOM     13  HD  SGN B   1      31.046  11.175  16.3250  0.00  0.00     0.000 HD
ATOM     13   S  SGN B   1      31.960  11.927  17.2780  0.00  0.00     0.000 S
ATOM     14   O  SGN B   1      31.906  12.864  16.2240  0.00  0.00     0.000 OA
ATOM     15   O  SGN B   1      31.386  12.257  18.5390  0.00  0.00     0.000 OA
ATOM     16   O  SGN B   1      33.424  11.459  17.5470  0.00  0.00     0.000 OA
ENDBRANCH 2 13
BRANCH 5 17
ATOM     17   C  SGN B   1      27.659   8.104  13.7720  0.00  0.00     0.000 C
ATOM     18   O  SGN B   1      26.490   8.643  13.1220  0.00  0.00     0.000 O
ATOM     19   S  SGN B   1      25.080   8.197  13.7300  0.00  0.00     0.000 S
ATOM     20   O  SGN B   1      24.096   8.667  12.7790  0.00  0.00     0.000 OA
ATOM     21   O  SGN B   1      25.169   6.757  13.8070  0.00  0.00     0.000 OA
ATOM     22   O  SGN B   1      25.001   8.851  15.0180  0.00  0.00     0.000 OA
ENDBRANCH 5 17
BRANCH 1 23
ATOM     23  O4  IDS B   2      28.597  11.780  15.6560  0.00  0.00     0.000 O
BRANCH 23 27
ATOM     24  C1  IDS B   2      26.015  14.881  14.6860  0.00  0.00     0.000 C
ATOM     25  C2  IDS B   2      25.346  13.610  15.2540  0.00  0.00     0.000 C
ATOM     26  C3  IDS B   2      26.388  12.665  15.8480  0.00  0.00     0.000 C
ATOM     27  C4  IDS B   2      27.501  12.299  14.8750  0.00  0.00     0.000 C
ATOM     28  C5  IDS B   2      27.860  13.519  14.0030  0.00  0.00     0.000 C
ATOM     29  O5  IDS B   2      27.439  14.726  14.6200  0.00  0.00     0.000 O
ATOM     30   O  IDS B   2      25.750  11.457  16.2460  0.00  0.00     0.000 O
ATOM     32  HD  IDS B   2      25.595  10.919  15.5850  0.00  0.00     0.000 HD
BRANCH 25 32
ATOM     32   O  IDS B   2      24.364  13.922  16.3210  0.00  0.00     0.000 O
ATOM     33   S  IDS B   2      22.773  13.505  16.1900  0.00  0.00     0.000 S
ATOM     34   O  IDS B   2      22.090  14.159  17.2940  0.00  0.00     0.000 OA
ATOM     35   O  IDS B   2      22.259  13.955  14.9040  0.00  0.00     0.000 OA
ATOM     36   O  IDS B   2      22.734  12.067  16.3250  0.00  0.00     0.000 OA
ENDBRANCH 25 32
BRANCH 28 37
ATOM     37   C  IDS B   2      29.331  13.685  13.5680  0.00  0.00     0.000 C
ATOM     38   O  IDS B   2      29.689  12.827  12.7950  0.00  0.00     0.000 OA
ATOM     39   O  IDS B   2      30.111  14.617  13.8820  0.00  0.00     0.000 OA
ENDBRANCH 28 37
BRANCH 24 40
ATOM     40  O4  SUS B   3      25.266  15.811  14.0560  0.00  0.00     0.000 O
BRANCH 40 44
ATOM     41  C1  SUS B   3      25.640  19.982  13.9590  0.00  0.00     0.000 C
ATOM     42  C2  SUS B   3      26.795  19.156  13.3570  0.00  0.00     0.000 C
ATOM     43  C3  SUS B   3      26.295  17.748  13.0420  0.00  0.00     0.000 C
ATOM     44  C4  SUS B   3      25.696  17.145  14.3030  0.00  0.00     0.000 C
ATOM     45  C5  SUS B   3      24.519  17.993  14.7400  0.00  0.00     0.000 C
ATOM     46  O5  SUS B   3      25.008  19.312  15.0560  0.00  0.00     0.000 O
BRANCH 42 49
ATOM     47   N  SUS B   3      27.296  20.038  12.2890  0.00  0.00     0.000 N
ATOM     49  HD  SUS B   3      27.223  19.743  11.4780  0.00  0.00     0.000 HD
ATOM     49   S  SUS B   3      28.816  20.488  12.5210  0.00  0.00     0.000 S
ATOM     50   O  SUS B   3      29.642  19.350  12.6230  0.00  0.00     0.000 OA
ATOM     51   O  SUS B   3      29.009  21.182  11.1490  0.00  0.00     0.000 OA
ATOM     52   O  SUS B   3      28.869  21.429  13.5680  0.00  0.00     0.000 OA
ENDBRANCH 42 49
BRANCH 43 53
ATOM     53   O  SUS B   3      27.451  16.944  12.6010  0.00  0.00     0.000 O
ATOM     54   S  SUS B   3      27.505  16.513  11.0160  0.00  0.00     0.000 S
ATOM     55   O  SUS B   3      27.791  17.716  10.2470  0.00  0.00     0.000 OA
ATOM     56   O  SUS B   3      28.558  15.516  10.9570  0.00  0.00     0.000 OA
ATOM     57   O  SUS B   3      26.181  15.976  10.6870  0.00  0.00     0.000 OA
ENDBRANCH 43 53
BRANCH 45 58
ATOM     58   C  SUS B   3      23.807  17.399  15.9360  0.00  0.00     0.000 C
ATOM     59   S  SUS B   3      23.776  17.421  18.5020  0.00  0.00     0.000 S
ATOM     60   O  SUS B   3      24.254  18.058  17.1320  0.00  0.00     0.000 O
ATOM     61   O  SUS B   3      24.630  16.265  18.7010  0.00  0.00     0.000 OA
ATOM     62   O  SUS B   3      24.072  18.494  19.4130  0.00  0.00     0.000 OA
ATOM     63   O  SUS B   3      22.396  17.135  18.3270  0.00  0.00     0.000 OA
ENDBRANCH 45 58
BRANCH 41 64
ATOM     64  O4  IDS B   4      24.765  20.475  13.0220  0.00  0.00     0.000 O
BRANCH 64 68
ATOM     65  C1  IDS B   4      22.477  22.729  11.3020  0.00  0.00     0.000 C
ATOM     66  C2  IDS B   4      23.960  23.094  11.4430  0.00  0.00     0.000 C
ATOM     67  C3  IDS B   4      24.526  22.891  12.8390  0.00  0.00     0.000 C
ATOM     68  C4  IDS B   4      24.025  21.620  13.4990  0.00  0.00     0.000 C
ATOM     69  C5  IDS B   4      22.514  21.517  13.2520  0.00  0.00     0.000 C
ATOM     70  O5  IDS B   4      22.271  21.437  11.8460  0.00  0.00     0.000 O
ATOM     71   O  IDS B   4      24.148  24.012  13.6120  0.00  0.00     0.000 O
ATOM     73  HD  IDS B   4      24.288  23.571  12.8790  0.00  0.00     0.000 HD
BRANCH 66 73
ATOM     73   O  IDS B   4      24.749  22.215  10.5690  0.00  0.00     0.000 O
ATOM     74   S  IDS B   4      25.758  22.907   9.5110  0.00  0.00     0.000 S
ATOM     75   O  IDS B   4      24.956  23.801   8.7040  0.00  0.00     0.000 OA
ATOM     76   O  IDS B   4      26.264  21.763   8.7930  0.00  0.00     0.000 OA
ATOM     77   O  IDS B   4      26.747  23.590  10.3100  0.00  0.00     0.000 OA
ENDBRANCH 66 73
BRANCH 69 78
ATOM     78   C  IDS B   4      21.822  20.411  14.0370  0.00  0.00     0.000 C
ATOM     79   O  IDS B   4      21.564  19.353  13.4640  0.00  0.00     0.000 OA
ATOM     80   O  IDS B   4      21.636  20.573  15.2570  0.00  0.00     0.000 OA
ENDBRANCH 69 78
BRANCH 65 81
ATOM     81  O4  SGN B   5      21.712  23.736  11.8070  0.00  0.00     0.000 O
BRANCH 81 85
ATOM     82  C1  SGN B   5      17.877  25.431  11.5560  0.00  0.00     0.000 C
ATOM     83  C2  SGN B   5      17.970  23.899  11.4820  0.00  0.00     0.000 C
ATOM     84  C3  SGN B   5      19.322  23.438  12.0430  0.00  0.00     0.000 C
ATOM     85  C4  SGN B   5      20.441  24.141  11.2940  0.00  0.00     0.000 C
ATOM     86  C5  SGN B   5      20.256  25.648  11.4600  0.00  0.00     0.000 C
ATOM     87  O5  SGN B   5      18.983  26.021  10.8990  0.00  0.00     0.000 O
ATOM     88   O  SGN B   5      19.438  22.037  11.9250  0.00  0.00     0.000 O
ATOM     90  HD  SGN B   5      19.243  22.466  12.6520  0.00  0.00     0.000 HD
BRANCH 83 92
ATOM     90   N  SGN B   5      16.615  23.994  10.9040  0.00  0.00     0.000 N
ATOM     92  HD  SGN B   5      16.649  24.202  10.0640  0.00  0.00     0.000 HD
ATOM     92   S  SGN B   5      15.558  22.854  11.2760  0.00  0.00     0.000 S
ATOM     93   O  SGN B   5      14.371  23.225  10.5660  0.00  0.00     0.000 OA
ATOM     94   O  SGN B   5      16.205  21.619  10.9880  0.00  0.00     0.000 OA
ATOM     95   O  SGN B   5      15.408  22.945  12.7790  0.00  0.00     0.000 OA
ENDBRANCH 83 92
BRANCH 86 96
ATOM     96   C  SGN B   5      21.315  26.482  10.7700  0.00  0.00     0.000 C
ATOM     97   O  SGN B   5      21.694  27.590  11.5900  0.00  0.00     0.000 O
ATOM     98   S  SGN B   5      23.268  27.787  11.8290  0.00  0.00     0.000 S
ATOM     99   O  SGN B   5      23.331  29.064  12.4980  0.00  0.00     0.000 OA
ATOM    100   O  SGN B   5      23.721  26.689  12.6050  0.00  0.00     0.000 OA
ATOM    101   O  SGN B   5      23.826  27.808  10.5160  0.00  0.00     0.000 OA
ENDBRANCH 86 96
BRANCH 82 102
ATOM    102  O4  IDS B   6      17.785  25.889  12.8360  0.00  0.00     0.000 O
BRANCH 102 106
ATOM    103  C1  IDS B   6      15.937  28.476  14.6100  0.00  0.00     0.000 C
ATOM    104  C2  IDS B   6      15.592  28.121  13.1550  0.00  0.00     0.000 C
ATOM    105  C3  IDS B   6      16.781  28.020  12.2190  0.00  0.00     0.000 C
ATOM    106  C4  IDS B   6      17.972  27.327  12.8570  0.00  0.00     0.000 C
ATOM    107  C5  IDS B   6      18.157  27.832  14.2910  0.00  0.00     0.000 C
ATOM    108  O5  IDS B   6      16.980  27.642  15.0780  0.00  0.00     0.000 O
ATOM    109   O  IDS B   6      17.126  29.330  11.7990  0.00  0.00     0.000 O
ATOM    111  HD  IDS B   6      16.803  29.839  12.4210  0.00  0.00     0.000 HD
BRANCH 104 111
ATOM    111   O  IDS B   6      14.958  26.795  13.1230  0.00  0.00     0.000 O
ATOM    112   S  IDS B   6      13.441  26.697  12.6220  0.00  0.00     0.000 S
ATOM    113   O  IDS B   6      12.699  27.559  13.5300  0.00  0.00     0.000 OA
ATOM    114   O  IDS B   6      13.390  27.104  11.2130  0.00  0.00     0.000 OA
ATOM    115   O  IDS B   6      13.214  25.284  12.8360  0.00  0.00     0.000 OA
ENDBRANCH 104 111
BRANCH 107 116
ATOM    116   C  IDS B   6      19.331  27.104  14.9340  0.00  0.00     0.000 C
ATOM    117   O  IDS B   6      19.077  26.382  15.8650  0.00  0.00     0.000 OA
ATOM    118   O  IDS B   6      20.472  27.258  14.5290  0.00  0.00     0.000 OA
ENDBRANCH 107 116
BRANCH 103 119
ATOM    119  O4  SGN B   7      16.069  29.828  14.5880  0.00  0.00     0.000 O
BRANCH 119 123
ATOM    120  C1  SGN B   7      15.156  33.007  17.1480  0.00  0.00     0.000 C
ATOM    121  C2  SGN B   7      16.411  32.171  17.4670  0.00  0.00     0.000 C
ATOM    122  C3  SGN B   7      16.824  31.335  16.2490  0.00  0.00     0.000 C
ATOM    123  C4  SGN B   7      15.641  30.510  15.7670  0.00  0.00     0.000 C
ATOM    124  C5  SGN B   7      14.443  31.431  15.4840  0.00  0.00     0.000 C
ATOM    125  O5  SGN B   7      14.089  32.198  16.6570  0.00  0.00     0.000 O
ATOM    126   O  SGN B   7      17.929  30.500  16.6110  0.00  0.00     0.000 O
ATOM    128  HD  SGN B   7      17.405  31.156  16.8190  0.00  0.00     0.000 HD
BRANCH 121 130
ATOM    128   N  SGN B   7      16.480  32.787  18.7950  0.00  0.00     0.000 N
ATOM    130  HD  SGN B   7      16.828  32.063  19.1190  0.00  0.00     0.000 HD
ATOM    130   S  SGN B   7      17.872  33.264  19.4490  0.00  0.00     0.000 S
ATOM    131   O  SGN B   7      18.500  34.059  18.4500  0.00  0.00     0.000 OA
ATOM    132   O  SGN B   7      17.600  33.806  20.7310  0.00  0.00     0.000 OA
ATOM    133   O  SGN B   7      18.537  31.875  19.7390  0.00  0.00     0.000 OA
ENDBRANCH 121 130
BRANCH 124 134
ATOM    134   C  SGN B   7      13.188  30.697  15.1120  0.00  0.00     0.000 C
ATOM    135   O  SGN B   7      12.153  31.661  14.8540  0.00  0.00     0.000 O
ATOM    136   S  SGN B   7      10.796  31.099  14.2990  0.00  0.00     0.000 S
ATOM    137   O  SGN B   7       9.893  32.223  14.2190  0.00  0.00     0.000 OA
ATOM    138   O  SGN B   7      10.377  30.105  15.2600  0.00  0.00     0.000 OA
ATOM    139   O  SGN B   7      11.186  30.560  13.0050  0.00  0.00     0.000 OA
ENDBRANCH 124 134
BRANCH 120 140
ATOM    140  O4  IDS B   8      15.046  34.035  16.3000  0.00  0.00     0.000 O
BRANCH 140 144
ATOM    141  C1  IDS B   8      15.534  35.956  13.2940  0.00  0.00     0.000 C
ATOM    142  C2  IDS B   8      16.679  35.080  13.8780  0.00  0.00     0.000 C
ATOM    143  C3  IDS B   8      16.896  35.298  15.3870  0.00  0.00     0.000 C
ATOM    144  C4  IDS B   8      15.575  35.359  16.1530  0.00  0.00     0.000 C
ATOM    145  C5  IDS B   8      14.570  36.249  15.4060  0.00  0.00     0.000 C
ATOM    146  O5  IDS B   8      14.354  35.796  14.0720  0.00  0.00     0.000 O
BRANCH 142 147
ATOM    147   O  IDS B   8      16.352  33.643  13.6840  0.00  0.00     0.000 O
ATOM    148   S  IDS B   8      16.973  32.805  12.4420  0.00  0.00     0.000 S
ATOM    149   O  IDS B   8      17.481  33.757  11.4810  0.00  0.00     0.000 OA
ATOM    150   O  IDS B   8      18.016  31.977  13.0170  0.00  0.00     0.000 OA
ATOM    151   O  IDS B   8      15.865  32.036  11.9080  0.00  0.00     0.000 OA
ENDBRANCH 142 147
BRANCH 145 152
ATOM    152   C  IDS B   8      13.206  36.270  16.0670  0.00  0.00     0.000 C
ATOM    153   O  IDS B   8      12.243  35.795  15.4770  0.00  0.00     0.000 OA
ATOM    154   O  IDS B   8      13.086  36.739  17.1840  0.00  0.00     0.000 OA
ENDBRANCH 145 152
ENDBRANCH 140 144
ENDBRANCH 120 140
ENDBRANCH 119 123
ENDBRANCH 103 119
ENDBRANCH 102 106
ENDBRANCH 82 102
ENDBRANCH 81 85
ENDBRANCH 65 81
ENDBRANCH 64 68
ENDBRANCH 41 64
ENDBRANCH 40 44
ENDBRANCH 24 40
ENDBRANCH 23 27
ENDBRANCH 1 23
TORSDOF 31
ENDMDL
MODEL 27
REMARK VINA RESULT:      -7.2      9.279     12.662
ROOT
ATOM      1  C1  SGN B   1      29.407  10.716  15.6590  0.00  0.00     0.000 C
ATOM      2  C2  SGN B   1      30.865  10.294  15.4140  0.00  0.00     0.000 C
ATOM      3  C3  SGN B   1      31.069   9.870  13.9560  0.00  0.00     0.000 C
ATOM      4  C4  SGN B   1      30.085   8.764  13.5870  0.00  0.00     0.000 C
ATOM      5  C5  SGN B   1      28.677   9.196  13.9880  0.00  0.00     0.000 C
ATOM      6  O5  SGN B   1      28.658   9.540  15.3870  0.00  0.00     0.000 O
ATOM      7   O  SGN B   1      32.408   9.437  13.7430  0.00  0.00     0.000 O
ATOM      9  HD  SGN B   1      32.132   8.871  14.3380  0.00  0.00     0.000 HD
ATOM      9   O  SGN B   1      30.145   8.528  12.1920  0.00  0.00     0.000 O
ATOM     11  HD  SGN B   1      29.870   7.961  12.7870  0.00  0.00     0.000 HD
ENDROOT
BRANCH 2 13
ATOM     11   N  SGN B   1      31.320  10.534  16.7970  0.00  0.00     0.000 N
ATOM     13  HD  SGN B   1      31.044  11.190  16.3050  0.00  0.00     0.000 HD
ATOM     13   S  SGN B   1      31.961  11.935  17.2600  0.00  0.00     0.000 S
ATOM     14   O  SGN B   1      31.958  12.849  16.1850  0.00  0.00     0.000 OA
ATOM     15   O  SGN B   1      31.372  12.312  18.5010  0.00  0.00     0.000 OA
ATOM     16   O  SGN B   1      33.404  11.428  17.5700  0.00  0.00     0.000 OA
ENDBRANCH 2 13
BRANCH 5 17
ATOM     17   C  SGN B   1      27.625   8.136  13.7720  0.00  0.00     0.000 C
ATOM     18   O  SGN B   1      26.458   8.691  13.1320  0.00  0.00     0.000 O
ATOM     19   S  SGN B   1      25.048   8.262  13.7510  0.00  0.00     0.000 S
ATOM     20   O  SGN B   1      24.061   8.747  12.8090  0.00  0.00     0.000 OA
ATOM     21   O  SGN B   1      25.119   6.821  13.8240  0.00  0.00     0.000 OA
ATOM     22   O  SGN B   1      24.987   8.914  15.0410  0.00  0.00     0.000 OA
ENDBRANCH 5 17
BRANCH 1 23
ATOM     23  O4  IDS B   2      28.609  11.821  15.6140  0.00  0.00     0.000 O
BRANCH 23 27
ATOM     24  C1  IDS B   2      26.244  15.048  14.5070  0.00  0.00     0.000 C
ATOM     25  C2  IDS B   2      25.480  13.789  14.9710  0.00  0.00     0.000 C
ATOM     26  C3  IDS B   2      26.425  12.787  15.6280  0.00  0.00     0.000 C
ATOM     27  C4  IDS B   2      27.610  12.405  14.7520  0.00  0.00     0.000 C
ATOM     28  C5  IDS B   2      28.094  13.633  13.9560  0.00  0.00     0.000 C
ATOM     29  O5  IDS B   2      27.661  14.838  14.5690  0.00  0.00     0.000 O
ATOM     30   O  IDS B   2      25.710  11.594  15.9270  0.00  0.00     0.000 O
ATOM     32  HD  IDS B   2      25.597  11.081  15.2390  0.00  0.00     0.000 HD
BRANCH 25 32
ATOM     32   O  IDS B   2      24.414  14.109  15.9520  0.00  0.00     0.000 O
ATOM     33   S  IDS B   2      22.817  13.867  15.6140  0.00  0.00     0.000 S
ATOM     34   O  IDS B   2      22.074  14.494  16.6960  0.00  0.00     0.000 OA
ATOM     35   O  IDS B   2      22.497  14.472  14.3290  0.00  0.00     0.000 OA
ATOM     36   O  IDS B   2      22.631  12.435  15.6100  0.00  0.00     0.000 OA
ENDBRANCH 25 32
BRANCH 28 37
ATOM     37   C  IDS B   2      29.604  13.753  13.6640  0.00  0.00     0.000 C
ATOM     38   O  IDS B   2      29.992  12.935  12.8620  0.00  0.00     0.000 OA
ATOM     39   O  IDS B   2      30.395  14.618  14.1140  0.00  0.00     0.000 OA
ENDBRANCH 28 37
BRANCH 24 40
ATOM     40  O4  SUS B   3      25.593  16.023  13.8410  0.00  0.00     0.000 O
BRANCH 40 44
ATOM     41  C1  SUS B   3      26.107  20.180  13.9260  0.00  0.00     0.000 C
ATOM     42  C2  SUS B   3      27.259  19.339  13.3390  0.00  0.00     0.000 C
ATOM     43  C3  SUS B   3      26.727  17.962  12.9480  0.00  0.00     0.000 C
ATOM     44  C4  SUS B   3      26.056  17.331  14.1580  0.00  0.00     0.000 C
ATOM     45  C5  SUS B   3      24.890  18.202  14.5810  0.00  0.00     0.000 C
ATOM     46  O5  SUS B   3      25.408  19.491  14.9680  0.00  0.00     0.000 O
BRANCH 42 49
ATOM     47   N  SUS B   3      27.837  20.232  12.3210  0.00  0.00     0.000 N
ATOM     49  HD  SUS B   3      27.797  19.961  11.5000  0.00  0.00     0.000 HD
ATOM     49   S  SUS B   3      29.356  20.631  12.6390  0.00  0.00     0.000 S
ATOM     50   O  SUS B   3      30.143  19.467  12.7510  0.00  0.00     0.000 OA
ATOM     51   O  SUS B   3      29.637  21.354  11.2980  0.00  0.00     0.000 OA
ATOM     52   O  SUS B   3      29.384  21.543  13.7130  0.00  0.00     0.000 OA
ENDBRANCH 42 49
BRANCH 43 53
ATOM     53   O  SUS B   3      27.873  17.135  12.5220  0.00  0.00     0.000 O
ATOM     54   S  SUS B   3      27.969  16.750  10.9270  0.00  0.00     0.000 S
ATOM     55   O  SUS B   3      28.317  17.965  10.2050  0.00  0.00     0.000 OA
ATOM     56   O  SUS B   3      28.994  15.723  10.8740  0.00  0.00     0.000 OA
ATOM     57   O  SUS B   3      26.642  16.263  10.5380  0.00  0.00     0.000 OA
ENDBRANCH 43 53
BRANCH 45 58
ATOM     58   C  SUS B   3      24.109  17.588  15.7220  0.00  0.00     0.000 C
ATOM     59   S  SUS B   3      24.001  17.474  18.2830  0.00  0.00     0.000 S
ATOM     60   O  SUS B   3      24.556  18.154  16.9650  0.00  0.00     0.000 O
ATOM     61   O  SUS B   3      24.782  16.262  18.4420  0.00  0.00     0.000 OA
ATOM     62   O  SUS B   3      24.329  18.478  19.2600  0.00  0.00     0.000 OA
ATOM     63   O  SUS B   3      22.613  17.278  18.0550  0.00  0.00     0.000 OA
ENDBRANCH 45 58
BRANCH 41 64
ATOM     64  O4  IDS B   4      25.289  20.738  12.9750  0.00  0.00     0.000 O
BRANCH 64 68
ATOM     65  C1  IDS B   4      22.839  23.019  11.5380  0.00  0.00     0.000 C
ATOM     66  C2  IDS B   4      24.017  23.566  12.3540  0.00  0.00     0.000 C
ATOM     67  C3  IDS B   4      24.265  22.837  13.6640  0.00  0.00     0.000 C
ATOM     68  C4  IDS B   4      24.101  21.334  13.5420  0.00  0.00     0.000 C
ATOM     69  C5  IDS B   4      22.831  21.056  12.7280  0.00  0.00     0.000 C
ATOM     70  O5  IDS B   4      22.978  21.615  11.4200  0.00  0.00     0.000 O
ATOM     71   O  IDS B   4      23.342  23.343  14.6060  0.00  0.00     0.000 O
ATOM     73  HD  IDS B   4      23.800  23.348  13.8710  0.00  0.00     0.000 HD
BRANCH 66 73
ATOM     73   O  IDS B   4      25.251  23.399  11.5740  0.00  0.00     0.000 O
ATOM     74   S  IDS B   4      26.053  24.732  11.1300  0.00  0.00     0.000 S
ATOM     75   O  IDS B   4      25.115  25.547  10.3880  0.00  0.00     0.000 OA
ATOM     76   O  IDS B   4      27.117  24.184  10.3280  0.00  0.00     0.000 OA
ATOM     77   O  IDS B   4      26.493  25.345  12.3610  0.00  0.00     0.000 OA
ENDBRANCH 66 73
BRANCH 69 78
ATOM     78   C  IDS B   4      22.407  19.593  12.7020  0.00  0.00     0.000 C
ATOM     79   O  IDS B   4      21.632  19.188  13.5680  0.00  0.00     0.000 OA
ATOM     80   O  IDS B   4      22.773  18.883  11.7480  0.00  0.00     0.000 OA
ENDBRANCH 69 78
BRANCH 65 81
ATOM     81  O4  SGN B   5      21.670  23.478  12.0650  0.00  0.00     0.000 O
BRANCH 81 85
ATOM     82  C1  SGN B   5      17.776  24.724  11.1040  0.00  0.00     0.000 C
ATOM     83  C2  SGN B   5      18.117  23.246  10.8580  0.00  0.00     0.000 C
ATOM     84  C3  SGN B   5      19.363  22.865  11.6690  0.00  0.00     0.000 C
ATOM     85  C4  SGN B   5      20.499  23.807  11.3140  0.00  0.00     0.000 C
ATOM     86  C5  SGN B   5      20.053  25.234  11.6220  0.00  0.00     0.000 C
ATOM     87  O5  SGN B   5      18.896  25.540  10.8200  0.00  0.00     0.000 O
ATOM     88   O  SGN B   5      19.716  21.525  11.4040  0.00  0.00     0.000 O
ATOM     90  HD  SGN B   5      19.299  21.804  12.1100  0.00  0.00     0.000 HD
BRANCH 83 92
ATOM     90   N  SGN B   5      16.696  23.308  10.4640  0.00  0.00     0.000 N
ATOM     92  HD  SGN B   5      16.536  24.016   9.9900  0.00  0.00     0.000 HD
ATOM     92   S  SGN B   5      16.003  21.969   9.9350  0.00  0.00     0.000 S
ATOM     93   O  SGN B   5      14.658  22.359   9.6370  0.00  0.00     0.000 OA
ATOM     94   O  SGN B   5      16.850  21.479   8.9020  0.00  0.00     0.000 OA
ATOM     95   O  SGN B   5      16.101  21.002  11.0950  0.00  0.00     0.000 OA
ENDBRANCH 83 92
BRANCH 86 96
ATOM     96   C  SGN B   5      21.099  26.289  11.3260  0.00  0.00     0.000 C
ATOM     97   O  SGN B   5      20.847  26.905  10.0610  0.00  0.00     0.000 O
ATOM     98   S  SGN B   5      20.819  28.508  10.0490  0.00  0.00     0.000 S
ATOM     99   O  SGN B   5      20.753  28.815   8.6400  0.00  0.00     0.000 OA
ATOM    100   O  SGN B   5      19.687  28.920  10.7980  0.00  0.00     0.000 OA
ATOM    101   O  SGN B   5      22.054  28.889  10.6530  0.00  0.00     0.000 OA
ENDBRANCH 86 96
BRANCH 82 102
ATOM    102  O4  IDS B   6      17.329  24.955  12.3710  0.00  0.00     0.000 O
BRANCH 102 106
ATOM    103  C1  IDS B   6      14.766  26.291  14.5850  0.00  0.00     0.000 C
ATOM    104  C2  IDS B   6      14.403  25.775  13.1840  0.00  0.00     0.000 C
ATOM    105  C3  IDS B   6      15.301  26.267  12.0650  0.00  0.00     0.000 C
ATOM    106  C4  IDS B   6      16.768  26.289  12.4570  0.00  0.00     0.000 C
ATOM    107  C5  IDS B   6      16.916  26.852  13.8730  0.00  0.00     0.000 C
ATOM    108  O5  IDS B   6      16.149  26.112  14.8240  0.00  0.00     0.000 O
ATOM    109   O  IDS B   6      14.862  27.561  11.6840  0.00  0.00     0.000 O
ATOM    111  HD  IDS B   6      14.439  27.851  12.3810  0.00  0.00     0.000 HD
BRANCH 104 111
ATOM    111   O  IDS B   6      14.528  24.309  13.1650  0.00  0.00     0.000 O
ATOM    112   S  IDS B   6      13.192  23.442  13.0010  0.00  0.00     0.000 S
ATOM    113   O  IDS B   6      12.359  23.836  14.1270  0.00  0.00     0.000 OA
ATOM    114   O  IDS B   6      12.614  23.725  11.6820  0.00  0.00     0.000 OA
ATOM    115   O  IDS B   6      13.758  22.116  13.1250  0.00  0.00     0.000 OA
ENDBRANCH 104 111
BRANCH 107 116
ATOM    116   C  IDS B   6      18.387  26.836  14.2700  0.00  0.00     0.000 C
ATOM    117   O  IDS B   6      19.070  27.739  13.8580  0.00  0.00     0.000 OA
ATOM    118   O  IDS B   6      18.848  25.944  14.9650  0.00  0.00     0.000 OA
ENDBRANCH 107 116
BRANCH 103 119
ATOM    119  O4  SGN B   7      14.195  27.521  14.6330  0.00  0.00     0.000 O
BRANCH 119 123
ATOM    120  C1  SGN B   7      12.920  30.089  17.6770  0.00  0.00     0.000 C
ATOM    121  C2  SGN B   7      14.334  30.307  17.1060  0.00  0.00     0.000 C
ATOM    122  C3  SGN B   7      14.490  29.578  15.7650  0.00  0.00     0.000 C
ATOM    123  C4  SGN B   7      14.110  28.115  15.9280  0.00  0.00     0.000 C
ATOM    124  C5  SGN B   7      12.691  28.006  16.5090  0.00  0.00     0.000 C
ATOM    125  O5  SGN B   7      12.590  28.704  17.7700  0.00  0.00     0.000 O
ATOM    126   O  SGN B   7      15.842  29.719  15.3130  0.00  0.00     0.000 O
ATOM    128  HD  SGN B   7      15.225  29.956  15.8730  0.00  0.00     0.000 HD
BRANCH 121 130
ATOM    128   N  SGN B   7      14.646  31.193  18.2300  0.00  0.00     0.000 N
ATOM    130  HD  SGN B   7      15.477  30.951  18.1990  0.00  0.00     0.000 HD
ATOM    130   S  SGN B   7      15.462  32.568  18.0400  0.00  0.00     0.000 S
ATOM    131   O  SGN B   7      14.800  33.250  16.9810  0.00  0.00     0.000 OA
ATOM    132   O  SGN B   7      15.604  33.182  19.3100  0.00  0.00     0.000 OA
ATOM    133   O  SGN B   7      16.887  32.006  17.7110  0.00  0.00     0.000 OA
ENDBRANCH 121 130
BRANCH 124 134
ATOM    134   C  SGN B   7      12.267  26.599  16.8150  0.00  0.00     0.000 C
ATOM    135   O  SGN B   7      13.050  26.116  17.9200  0.00  0.00     0.000 O
ATOM    136   S  SGN B   7      12.653  24.710  18.4960  0.00  0.00     0.000 S
ATOM    137   O  SGN B   7      13.630  24.396  19.5110  0.00  0.00     0.000 OA
ATOM    138   O  SGN B   7      12.704  23.809  17.3670  0.00  0.00     0.000 OA
ATOM    139   O  SGN B   7      11.316  24.950  19.0160  0.00  0.00     0.000 OA
ENDBRANCH 124 134
BRANCH 120 140
ATOM    140  O4  IDS B   8      11.759  30.549  17.1980  0.00  0.00     0.000 O
BRANCH 140 144
ATOM    141  C1  IDS B   8       9.333  31.426  14.6870  0.00  0.00     0.000 C
ATOM    142  C2  IDS B   8      10.854  31.631  14.4350  0.00  0.00     0.000 C
ATOM    143  C3  IDS B   8      11.566  32.350  15.5950  0.00  0.00     0.000 C
ATOM    144  C4  IDS B   8      11.129  31.813  16.9570  0.00  0.00     0.000 C
ATOM    145  C5  IDS B   8       9.601  31.659  17.0000  0.00  0.00     0.000 C
ATOM    146  O5  IDS B   8       9.128  30.813  15.9540  0.00  0.00     0.000 O
BRANCH 142 147
ATOM    147   O  IDS B   8      11.511  30.307  14.2690  0.00  0.00     0.000 O
ATOM    148   S  IDS B   8      11.786  29.691  12.7940  0.00  0.00     0.000 S
ATOM    149   O  IDS B   8      10.968  30.422  11.8530  0.00  0.00     0.000 OA
ATOM    150   O  IDS B   8      13.207  29.868  12.5590  0.00  0.00     0.000 OA
ATOM    151   O  IDS B   8      11.394  28.297  12.8830  0.00  0.00     0.000 OA
ENDBRANCH 142 147
BRANCH 145 152
ATOM    152   C  IDS B   8       9.114  31.036  18.2920  0.00  0.00     0.000 C
ATOM    153   O  IDS B   8       9.364  31.585  19.3600  0.00  0.00     0.000 OA
ATOM    154   O  IDS B   8       8.461  30.008  18.2570  0.00  0.00     0.000 OA
ENDBRANCH 145 152
ENDBRANCH 140 144
ENDBRANCH 120 140
ENDBRANCH 119 123
ENDBRANCH 103 119
ENDBRANCH 102 106
ENDBRANCH 82 102
ENDBRANCH 81 85
ENDBRANCH 65 81
ENDBRANCH 64 68
ENDBRANCH 41 64
ENDBRANCH 40 44
ENDBRANCH 24 40
ENDBRANCH 23 27
ENDBRANCH 1 23
TORSDOF 31
ENDMDL
MODEL 28
REMARK VINA RESULT:      -7.2      3.093      4.869
ROOT
ATOM      1  C1  SGN B   1      27.787  15.984  12.3320  0.00  0.00     0.000 C
ATOM      2  C2  SGN B   1      29.000  15.178  11.8400  0.00  0.00     0.000 C
ATOM      3  C3  SGN B   1      30.241  16.073  11.7380  0.00  0.00     0.000 C
ATOM      4  C4  SGN B   1      29.952  17.273  10.8430  0.00  0.00     0.000 C
ATOM      5  C5  SGN B   1      28.658  17.940  11.3050  0.00  0.00     0.000 C
ATOM      6  O5  SGN B   1      27.595  16.967  11.3240  0.00  0.00     0.000 O
ATOM      7   O  SGN B   1      31.350  15.334  11.2400  0.00  0.00     0.000 O
ATOM      9  HD  SGN B   1      30.789  15.274  10.5830  0.00  0.00     0.000 HD
ATOM      9   O  SGN B   1      31.029  18.189  10.9230  0.00  0.00     0.000 O
ATOM     11  HD  SGN B   1      30.468  18.129  10.2660  0.00  0.00     0.000 HD
ENDROOT
BRANCH 2 13
ATOM     11   N  SGN B   1      28.396  13.842  11.6800  0.00  0.00     0.000 N
ATOM     13  HD  SGN B   1      28.352  14.257  12.4390  0.00  0.00     0.000 HD
ATOM     13   S  SGN B   1      28.239  12.817  12.9100  0.00  0.00     0.000 S
ATOM     14   O  SGN B   1      28.705  13.413  14.1010  0.00  0.00     0.000 OA
ATOM     15   O  SGN B   1      26.927  12.264  12.8710  0.00  0.00     0.000 OA
ATOM     16   O  SGN B   1      29.219  11.713  12.4070  0.00  0.00     0.000 OA
ENDBRANCH 2 13
BRANCH 5 17
ATOM     17   C  SGN B   1      28.208  19.080  10.4260  0.00  0.00     0.000 C
ATOM     18   O  SGN B   1      28.255  18.707   9.0340  0.00  0.00     0.000 O
ATOM     19   S  SGN B   1      28.903  19.781   8.0420  0.00  0.00     0.000 S
ATOM     20   O  SGN B   1      28.620  19.283   6.7130  0.00  0.00     0.000 OA
ATOM     21   O  SGN B   1      28.215  21.012   8.3560  0.00  0.00     0.000 OA
ATOM     22   O  SGN B   1      30.312  19.795   8.3680  0.00  0.00     0.000 OA
ENDBRANCH 5 17
BRANCH 1 23
ATOM     23  O4  IDS B   2      27.163  16.348  13.4890  0.00  0.00     0.000 O
BRANCH 23 27
ATOM     24  C1  IDS B   2      25.661  18.172  16.9010  0.00  0.00     0.000 C
ATOM     25  C2  IDS B   2      25.207  18.789  15.5600  0.00  0.00     0.000 C
ATOM     26  C3  IDS B   2      25.566  17.877  14.3900  0.00  0.00     0.000 C
ATOM     27  C4  IDS B   2      27.042  17.507  14.3400  0.00  0.00     0.000 C
ATOM     28  C5  IDS B   2      27.585  17.308  15.7690  0.00  0.00     0.000 C
ATOM     29  O5  IDS B   2      26.528  17.051  16.6820  0.00  0.00     0.000 O
ATOM     30   O  IDS B   2      25.246  18.534  13.1690  0.00  0.00     0.000 O
ATOM     32  HD  IDS B   2      25.836  19.121  12.9320  0.00  0.00     0.000 HD
BRANCH 25 32
ATOM     32   O  IDS B   2      23.742  19.019  15.5160  0.00  0.00     0.000 O
ATOM     33   S  IDS B   2      23.102  20.521  15.2770  0.00  0.00     0.000 S
ATOM     34   O  IDS B   2      21.673  20.396  15.5190  0.00  0.00     0.000 OA
ATOM     35   O  IDS B   2      23.717  21.462  16.2020  0.00  0.00     0.000 OA
ATOM     36   O  IDS B   2      23.375  20.847  13.8970  0.00  0.00     0.000 OA
ENDBRANCH 25 32
BRANCH 28 37
ATOM     37   C  IDS B   2      28.679  16.242  15.9830  0.00  0.00     0.000 C
ATOM     38   O  IDS B   2      29.683  16.469  15.3490  0.00  0.00     0.000 OA
ATOM     39   O  IDS B   2      28.634  15.259  16.7620  0.00  0.00     0.000 OA
ENDBRANCH 28 37
BRANCH 24 40
ATOM     40  O4  SUS B   3      25.494  18.861  18.0500  0.00  0.00     0.000 O
BRANCH 40 44
ATOM     41  C1  SUS B   3      24.336  17.288  21.7550  0.00  0.00     0.000 C
ATOM     42  C2  SUS B   3      25.780  17.813  21.6330  0.00  0.00     0.000 C
ATOM     43  C3  SUS B   3      25.873  18.755  20.4340  0.00  0.00     0.000 C
ATOM     44  C4  SUS B   3      25.373  18.026  19.1960  0.00  0.00     0.000 C
ATOM     45  C5  SUS B   3      23.922  17.644  19.4050  0.00  0.00     0.000 C
ATOM     46  O5  SUS B   3      23.852  16.738  20.5250  0.00  0.00     0.000 O
BRANCH 42 49
ATOM     47   N  SUS B   3      26.521  16.833  22.4460  0.00  0.00     0.000 N
ATOM     49  HD  SUS B   3      26.070  16.153  22.7370  0.00  0.00     0.000 HD
ATOM     49   S  SUS B   3      27.271  17.505  23.6920  0.00  0.00     0.000 S
ATOM     50   O  SUS B   3      26.340  18.185  24.5020  0.00  0.00     0.000 OA
ATOM     51   O  SUS B   3      27.718  16.183  24.3660  0.00  0.00     0.000 OA
ATOM     52   O  SUS B   3      28.387  18.230  23.2290  0.00  0.00     0.000 OA
ENDBRANCH 42 49
BRANCH 43 53
ATOM     53   O  SUS B   3      27.289  19.130  20.2580  0.00  0.00     0.000 O
ATOM     54   S  SUS B   3      27.673  20.718  20.4380  0.00  0.00     0.000 S
ATOM     55   O  SUS B   3      27.554  21.038  21.8540  0.00  0.00     0.000 OA
ATOM     56   O  SUS B   3      29.029  20.812  19.9280  0.00  0.00     0.000 OA
ATOM     57   O  SUS B   3      26.701  21.472  19.6400  0.00  0.00     0.000 OA
ENDBRANCH 43 53
BRANCH 45 58
ATOM     58   C  SUS B   3      23.323  17.001  18.1740  0.00  0.00     0.000 C
ATOM     59   S  SUS B   3      23.000  14.733  17.0180  0.00  0.00     0.000 S
ATOM     60   O  SUS B   3      23.384  15.571  18.3050  0.00  0.00     0.000 O
ATOM     61   O  SUS B   3      24.166  14.803  16.1570  0.00  0.00     0.000 OA
ATOM     62   O  SUS B   3      22.811  13.429  17.5940  0.00  0.00     0.000 OA
ATOM     63   O  SUS B   3      21.827  15.345  16.5020  0.00  0.00     0.000 OA
ENDBRANCH 45 58
BRANCH 41 64
ATOM     64  O4  IDS B   4      23.474  18.174  22.3530  0.00  0.00     0.000 O
BRANCH 64 68
ATOM     65  C1  IDS B   4      20.590  19.542  24.1100  0.00  0.00     0.000 C
ATOM     66  C2  IDS B   4      21.755  18.929  24.8980  0.00  0.00     0.000 C
ATOM     67  C3  IDS B   4      22.236  17.590  24.3670  0.00  0.00     0.000 C
ATOM     68  C4  IDS B   4      22.277  17.536  22.8520  0.00  0.00     0.000 C
ATOM     69  C5  IDS B   4      20.982  18.163  22.3160  0.00  0.00     0.000 C
ATOM     70  O5  IDS B   4      20.914  19.529  22.7320  0.00  0.00     0.000 O
ATOM     71   O  IDS B   4      21.351  16.603  24.8560  0.00  0.00     0.000 O
ATOM     73  HD  IDS B   4      21.726  17.383  24.8350  0.00  0.00     0.000 HD
BRANCH 66 73
ATOM     73   O  IDS B   4      22.914  19.827  24.8020  0.00  0.00     0.000 O
ATOM     74   S  IDS B   4      23.530  20.420  26.1760  0.00  0.00     0.000 S
ATOM     75   O  IDS B   4      22.445  21.097  26.8530  0.00  0.00     0.000 OA
ATOM     76   O  IDS B   4      24.557  21.302  25.6830  0.00  0.00     0.000 OA
ATOM     77   O  IDS B   4      24.028  19.274  26.9000  0.00  0.00     0.000 OA
ENDBRANCH 66 73
BRANCH 69 78
ATOM     78   C  IDS B   4      20.770  17.987  20.8190  0.00  0.00     0.000 C
ATOM     79   O  IDS B   4      20.568  16.856  20.3790  0.00  0.00     0.000 OA
ATOM     80   O  IDS B   4      20.704  19.004  20.1030  0.00  0.00     0.000 OA
ENDBRANCH 69 78
BRANCH 65 81
ATOM     81  O4  SGN B   5      19.427  18.931  24.4720  0.00  0.00     0.000 O
BRANCH 81 85
ATOM     82  C1  SGN B   5      15.337  19.604  25.1460  0.00  0.00     0.000 C
ATOM     83  C2  SGN B   5      15.780  19.398  23.6900  0.00  0.00     0.000 C
ATOM     84  C3  SGN B   5      17.156  18.720  23.6630  0.00  0.00     0.000 C
ATOM     85  C4  SGN B   5      18.138  19.548  24.4740  0.00  0.00     0.000 C
ATOM     86  C5  SGN B   5      17.605  19.663  25.9000  0.00  0.00     0.000 C
ATOM     87  O5  SGN B   5      16.325  20.321  25.8620  0.00  0.00     0.000 O
ATOM     88   O  SGN B   5      17.595  18.579  22.3290  0.00  0.00     0.000 O
ATOM     90  HD  SGN B   5      17.256  17.948  22.8160  0.00  0.00     0.000 HD
BRANCH 83 92
ATOM     90   N  SGN B   5      14.323  19.592  23.5490  0.00  0.00     0.000 N
ATOM     92  HD  SGN B   5      14.053  20.268  24.0180  0.00  0.00     0.000 HD
ATOM     92   S  SGN B   5      13.690  19.487  22.0850  0.00  0.00     0.000 S
ATOM     93   O  SGN B   5      12.292  19.726  22.2860  0.00  0.00     0.000 OA
ATOM     94   O  SGN B   5      14.453  20.369  21.2700  0.00  0.00     0.000 OA
ATOM     95   O  SGN B   5      13.996  18.076  21.6340  0.00  0.00     0.000 OA
ENDBRANCH 83 92
BRANCH 86 96
ATOM     96   C  SGN B   5      18.495  20.458  26.8330  0.00  0.00     0.000 C
ATOM     97   O  SGN B   5      18.208  21.855  26.7310  0.00  0.00     0.000 O
ATOM     98   S  SGN B   5      17.943  22.624  28.1130  0.00  0.00     0.000 S
ATOM     99   O  SGN B   5      17.892  24.007  27.7030  0.00  0.00     0.000 OA
ATOM    100   O  SGN B   5      16.732  22.122  28.6550  0.00  0.00     0.000 OA
ATOM    101   O  SGN B   5      19.081  22.314  28.9150  0.00  0.00     0.000 OA
ENDBRANCH 86 96
BRANCH 82 102
ATOM    102  O4  IDS B   6      15.050  18.431  25.7780  0.00  0.00     0.000 O
BRANCH 102 106
ATOM    103  C1  IDS B   6      12.742  16.522  27.8490  0.00  0.00     0.000 C
ATOM    104  C2  IDS B   6      12.237  17.674  26.9650  0.00  0.00     0.000 C
ATOM    105  C3  IDS B   6      13.044  18.955  27.0560  0.00  0.00     0.000 C
ATOM    106  C4  IDS B   6      14.541  18.702  27.1090  0.00  0.00     0.000 C
ATOM    107  C5  IDS B   6      14.835  17.534  28.0540  0.00  0.00     0.000 C
ATOM    108  O5  IDS B   6      14.135  16.349  27.6700  0.00  0.00     0.000 O
ATOM    109   O  IDS B   6      12.613  19.669  28.2030  0.00  0.00     0.000 O
ATOM    111  HD  IDS B   6      12.264  19.058  28.7090  0.00  0.00     0.000 HD
BRANCH 104 111
ATOM    111   O  IDS B   6      12.314  17.265  25.5540  0.00  0.00     0.000 O
ATOM    112   S  IDS B   6      10.944  17.097  24.7440  0.00  0.00     0.000 S
ATOM    113   O  IDS B   6      10.197  16.097  25.4900  0.00  0.00     0.000 OA
ATOM    114   O  IDS B   6      10.292  18.409  24.6560  0.00  0.00     0.000 OA
ATOM    115   O  IDS B   6      11.474  16.617  23.4860  0.00  0.00     0.000 OA
ENDBRANCH 104 111
BRANCH 107 116
ATOM    116   C  IDS B   6      16.334  17.265  28.0720  0.00  0.00     0.000 C
ATOM    117   O  IDS B   6      16.986  17.884  28.8750  0.00  0.00     0.000 OA
ATOM    118   O  IDS B   6      16.846  16.468  27.3020  0.00  0.00     0.000 OA
ENDBRANCH 107 116
BRANCH 103 119
ATOM    119  O4  SGN B   7      12.215  16.799  29.0690  0.00  0.00     0.000 O
BRANCH 119 123
ATOM    120  C1  SGN B   7      11.180  14.619  32.4850  0.00  0.00     0.000 C
ATOM    121  C2  SGN B   7      12.657  14.605  32.0500  0.00  0.00     0.000 C
ATOM    122  C3  SGN B   7      12.938  15.743  31.0600  0.00  0.00     0.000 C
ATOM    123  C4  SGN B   7      11.955  15.669  29.9020  0.00  0.00     0.000 C
ATOM    124  C5  SGN B   7      10.514  15.682  30.4380  0.00  0.00     0.000 C
ATOM    125  O5  SGN B   7      10.295  14.595  31.3650  0.00  0.00     0.000 O
ATOM    126   O  SGN B   7      14.291  15.640  30.6030  0.00  0.00     0.000 O
ATOM    128  HD  SGN B   7      13.680  15.376  31.1570  0.00  0.00     0.000 HD
BRANCH 121 130
ATOM    128   N  SGN B   7      13.133  13.386  32.7090  0.00  0.00     0.000 N
ATOM    130  HD  SGN B   7      13.891  13.449  32.2950  0.00  0.00     0.000 HD
ATOM    130   S  SGN B   7      14.236  13.418  33.8820  0.00  0.00     0.000 S
ATOM    131   O  SGN B   7      13.763  14.387  34.8110  0.00  0.00     0.000 OA
ATOM    132   O  SGN B   7      14.482  12.084  34.3000  0.00  0.00     0.000 OA
ATOM    133   O  SGN B   7      15.508  13.816  33.0610  0.00  0.00     0.000 OA
ENDBRANCH 121 130
BRANCH 124 134
ATOM    134   C  SGN B   7       9.470  15.496  29.3770  0.00  0.00     0.000 C
ATOM    135   O  SGN B   7       8.440  14.637  29.8940  0.00  0.00     0.000 O
ATOM    136   S  SGN B   7       7.172  14.441  28.9870  0.00  0.00     0.000 S
ATOM    137   O  SGN B   7       6.339  13.471  29.6580  0.00  0.00     0.000 OA
ATOM    138   O  SGN B   7       7.683  13.966  27.7210  0.00  0.00     0.000 OA
ATOM    139   O  SGN B   7       6.607  15.780  28.9450  0.00  0.00     0.000 OA
ENDBRANCH 124 134
BRANCH 120 140
ATOM    140  O4  IDS B   8      10.549  15.534  33.2290  0.00  0.00     0.000 O
BRANCH 140 144
ATOM    141  C1  IDS B   8       9.608  18.788  34.4490  0.00  0.00     0.000 C
ATOM    142  C2  IDS B   8      11.073  18.486  34.0240  0.00  0.00     0.000 C
ATOM    143  C3  IDS B   8      11.623  17.184  34.6340  0.00  0.00     0.000 C
ATOM    144  C4  IDS B   8      10.606  16.046  34.5660  0.00  0.00     0.000 C
ATOM    145  C5  IDS B   8       9.220  16.547  34.9990  0.00  0.00     0.000 C
ATOM    146  O5  IDS B   8       8.788  17.651  34.2070  0.00  0.00     0.000 O
BRANCH 142 147
ATOM    147   O  IDS B   8      11.141  18.342  32.5460  0.00  0.00     0.000 O
ATOM    148   S  IDS B   8      11.649  19.565  31.6090  0.00  0.00     0.000 S
ATOM    149   O  IDS B   8      11.601  20.773  32.4010  0.00  0.00     0.000 OA
ATOM    150   O  IDS B   8      12.997  19.210  31.2070  0.00  0.00     0.000 OA
ATOM    151   O  IDS B   8      10.716  19.608  30.4990  0.00  0.00     0.000 OA
ENDBRANCH 142 147
BRANCH 145 152
ATOM    152   C  IDS B   8       8.146  15.487  34.8580  0.00  0.00     0.000 C
ATOM    153   O  IDS B   8       7.247  15.643  34.0400  0.00  0.00     0.000 OA
ATOM    154   O  IDS B   8       8.198  14.483  35.5450  0.00  0.00     0.000 OA
ENDBRANCH 145 152
ENDBRANCH 140 144
ENDBRANCH 120 140
ENDBRANCH 119 123
ENDBRANCH 103 119
ENDBRANCH 102 106
ENDBRANCH 82 102
ENDBRANCH 81 85
ENDBRANCH 65 81
ENDBRANCH 64 68
ENDBRANCH 41 64
ENDBRANCH 40 44
ENDBRANCH 24 40
ENDBRANCH 23 27
ENDBRANCH 1 23
TORSDOF 31
ENDMDL
MODEL 29
REMARK VINA RESULT:      -7.2      2.478      4.345
ROOT
ATOM      1  C1  SGN B   1      28.794  11.270  14.2390  0.00  0.00     0.000 C
ATOM      2  C2  SGN B   1      30.271  10.864  14.1070  0.00  0.00     0.000 C
ATOM      3  C3  SGN B   1      30.473   9.935  12.9050  0.00  0.00     0.000 C
ATOM      4  C4  SGN B   1      29.556   8.721  13.0180  0.00  0.00     0.000 C
ATOM      5  C5  SGN B   1      28.131   9.196  13.2890  0.00  0.00     0.000 C
ATOM      6  O5  SGN B   1      28.118  10.039  14.4580  0.00  0.00     0.000 O
ATOM      7   O  SGN B   1      31.833   9.526  12.8120  0.00  0.00     0.000 O
ATOM      9  HD  SGN B   1      31.607   9.211  13.5860  0.00  0.00     0.000 HD
ATOM      9   O  SGN B   1      29.603   7.982  11.8110  0.00  0.00     0.000 O
ATOM     11  HD  SGN B   1      29.377   7.667  12.5860  0.00  0.00     0.000 HD
ENDROOT
BRANCH 2 13
ATOM     11   N  SGN B   1      30.848  12.209  13.9180  0.00  0.00     0.000 N
ATOM     13  HD  SGN B   1      31.054  11.735  14.6140  0.00  0.00     0.000 HD
ATOM     13   S  SGN B   1      31.294  13.134  15.1570  0.00  0.00     0.000 S
ATOM     14   O  SGN B   1      31.096  12.446  16.3720  0.00  0.00     0.000 OA
ATOM     15   O  SGN B   1      32.574  13.688  14.8670  0.00  0.00     0.000 OA
ATOM     16   O  SGN B   1      30.246  14.274  14.9720  0.00  0.00     0.000 OA
ENDBRANCH 2 13
BRANCH 5 17
ATOM     17   C  SGN B   1      27.146   8.079  13.5300  0.00  0.00     0.000 C
ATOM     18   O  SGN B   1      26.168   8.017  12.4730  0.00  0.00     0.000 O
ATOM     19   S  SGN B   1      24.647   7.841  12.9340  0.00  0.00     0.000 S
ATOM     20   O  SGN B   1      23.914   7.574  11.7150  0.00  0.00     0.000 OA
ATOM     21   O  SGN B   1      24.682   6.721  13.8460  0.00  0.00     0.000 OA
ATOM     22   O  SGN B   1      24.294   9.097  13.5590  0.00  0.00     0.000 OA
ENDBRANCH 5 17
BRANCH 1 23
ATOM     23  O4  IDS B   2      27.924  12.232  13.8190  0.00  0.00     0.000 O
BRANCH 23 27
ATOM     24  C1  IDS B   2      25.273  14.455  16.1130  0.00  0.00     0.000 C
ATOM     25  C2  IDS B   2      25.040  12.928  16.1160  0.00  0.00     0.000 C
ATOM     26  C3  IDS B   2      26.226  12.194  15.4990  0.00  0.00     0.000 C
ATOM     27  C4  IDS B   2      26.581  12.681  14.1000  0.00  0.00     0.000 C
ATOM     28  C5  IDS B   2      26.387  14.208  14.0090  0.00  0.00     0.000 C
ATOM     29  O5  IDS B   2      26.403  14.799  15.3000  0.00  0.00     0.000 O
ATOM     30   O  IDS B   2      25.922  10.807  15.4060  0.00  0.00     0.000 O
ATOM     32  HD  IDS B   2      25.413  10.613  14.7330  0.00  0.00     0.000 HD
BRANCH 25 32
ATOM     32   O  IDS B   2      24.846  12.394  17.4870  0.00  0.00     0.000 O
ATOM     33   S  IDS B   2      23.551  11.448  17.8780  0.00  0.00     0.000 S
ATOM     34   O  IDS B   2      23.574  11.308  19.3250  0.00  0.00     0.000 OA
ATOM     35   O  IDS B   2      22.326  12.094  17.4260  0.00  0.00     0.000 OA
ATOM     36   O  IDS B   2      23.780  10.182  17.2220  0.00  0.00     0.000 OA
ENDBRANCH 25 32
BRANCH 28 37
ATOM     37   C  IDS B   2      27.347  15.003  13.1000  0.00  0.00     0.000 C
ATOM     38   O  IDS B   2      27.289  14.657  11.9430  0.00  0.00     0.000 OA
ATOM     39   O  IDS B   2      28.084  15.962  13.4350  0.00  0.00     0.000 OA
ENDBRANCH 28 37
BRANCH 24 40
ATOM     40  O4  SUS B   3      24.305  15.284  16.5570  0.00  0.00     0.000 O
BRANCH 40 44
ATOM     41  C1  SUS B   3      24.568  19.149  18.1520  0.00  0.00     0.000 C
ATOM     42  C2  SUS B   3      25.013  18.959  16.6880  0.00  0.00     0.000 C
ATOM     43  C3  SUS B   3      24.414  17.663  16.1440  0.00  0.00     0.000 C
ATOM     44  C4  SUS B   3      24.806  16.517  17.0640  0.00  0.00     0.000 C
ATOM     45  C5  SUS B   3      24.235  16.777  18.4420  0.00  0.00     0.000 C
ATOM     46  O5  SUS B   3      24.824  17.990  18.9530  0.00  0.00     0.000 O
BRANCH 42 49
ATOM     47   N  SUS B   3      25.841  19.432  15.5650  0.00  0.00     0.000 N
ATOM     49  HD  SUS B   3      26.637  19.095  15.5030  0.00  0.00     0.000 HD
ATOM     49   S  SUS B   3      25.971  21.028  15.5230  0.00  0.00     0.000 S
ATOM     50   O  SUS B   3      26.508  21.498  16.7390  0.00  0.00     0.000 OA
ATOM     51   O  SUS B   3      27.033  21.092  14.3960  0.00  0.00     0.000 OA
ATOM     52   O  SUS B   3      24.751  21.584  15.0900  0.00  0.00     0.000 OA
ENDBRANCH 42 49
BRANCH 43 53
ATOM     53   O  SUS B   3      24.969  17.437  14.7960  0.00  0.00     0.000 O
ATOM     54   S  SUS B   3      23.924  17.530  13.5300  0.00  0.00     0.000 S
ATOM     55   O  SUS B   3      23.561  18.931  13.3670  0.00  0.00     0.000 OA
ATOM     56   O  SUS B   3      24.675  16.985  12.4130  0.00  0.00     0.000 OA
ATOM     57   O  SUS B   3      22.759  16.719  13.8940  0.00  0.00     0.000 OA
ENDBRANCH 43 53
BRANCH 45 58
ATOM     58   C  SUS B   3      24.498  15.628  19.3910  0.00  0.00     0.000 C
ATOM     59   S  SUS B   3      24.528  15.015  21.8830  0.00  0.00     0.000 S
ATOM     60   O  SUS B   3      24.122  16.014  20.7230  0.00  0.00     0.000 O
ATOM     61   O  SUS B   3      25.942  15.250  22.1080  0.00  0.00     0.000 OA
ATOM     62   O  SUS B   3      23.706  15.503  22.9570  0.00  0.00     0.000 OA
ATOM     63   O  SUS B   3      24.196  13.721  21.4020  0.00  0.00     0.000 OA
ENDBRANCH 45 58
BRANCH 41 64
ATOM     64  O4  IDS B   4      23.297  19.652  18.2830  0.00  0.00     0.000 O
BRANCH 64 68
ATOM     65  C1  IDS B   4      20.419  21.300  19.7920  0.00  0.00     0.000 C
ATOM     66  C2  IDS B   4      21.768  22.025  19.7090  0.00  0.00     0.000 C
ATOM     67  C3  IDS B   4      22.959  21.187  20.1430  0.00  0.00     0.000 C
ATOM     68  C4  IDS B   4      22.876  19.751  19.6610  0.00  0.00     0.000 C
ATOM     69  C5  IDS B   4      21.445  19.249  19.9000  0.00  0.00     0.000 C
ATOM     70  O5  IDS B   4      20.534  20.047  19.1420  0.00  0.00     0.000 O
ATOM     71   O  IDS B   4      23.000  21.216  21.5540  0.00  0.00     0.000 O
ATOM     73  HD  IDS B   4      22.762  21.489  20.7680  0.00  0.00     0.000 HD
BRANCH 66 73
ATOM     73   O  IDS B   4      22.030  22.380  18.3070  0.00  0.00     0.000 O
ATOM     74   S  IDS B   4      21.967  23.943  17.8950  0.00  0.00     0.000 S
ATOM     75   O  IDS B   4      20.654  24.415  18.2800  0.00  0.00     0.000 OA
ATOM     76   O  IDS B   4      22.175  23.883  16.4700  0.00  0.00     0.000 OA
ATOM     77   O  IDS B   4      23.038  24.577  18.6260  0.00  0.00     0.000 OA
ENDBRANCH 66 73
BRANCH 69 78
ATOM     78   C  IDS B   4      21.256  17.756  19.6730  0.00  0.00     0.000 C
ATOM     79   O  IDS B   4      21.149  17.342  18.5190  0.00  0.00     0.000 OA
ATOM     80   O  IDS B   4      21.322  16.991  20.6530  0.00  0.00     0.000 OA
ENDBRANCH 69 78
BRANCH 65 81
ATOM     81  O4  SGN B   5      19.992  21.284  21.0850  0.00  0.00     0.000 O
BRANCH 81 85
ATOM     82  C1  SGN B   5      16.448  20.693  23.2590  0.00  0.00     0.000 C
ATOM     83  C2  SGN B   5      16.483  20.153  21.8210  0.00  0.00     0.000 C
ATOM     84  C3  SGN B   5      17.940  20.030  21.3540  0.00  0.00     0.000 C
ATOM     85  C4  SGN B   5      18.629  21.375  21.5040  0.00  0.00     0.000 C
ATOM     86  C5  SGN B   5      18.550  21.794  22.9700  0.00  0.00     0.000 C
ATOM     87  O5  SGN B   5      17.164  21.911  23.3430  0.00  0.00     0.000 O
ATOM     88   O  SGN B   5      17.979  19.589  20.0150  0.00  0.00     0.000 O
ATOM     90  HD  SGN B   5      18.124  19.094  20.7110  0.00  0.00     0.000 HD
BRANCH 83 92
ATOM     90   N  SGN B   5      15.094  19.854  22.2220  0.00  0.00     0.000 N
ATOM     92  HD  SGN B   5      14.697  20.564  22.5190  0.00  0.00     0.000 HD
ATOM     92   S  SGN B   5      14.212  18.942  21.2510  0.00  0.00     0.000 S
ATOM     93   O  SGN B   5      12.943  18.849  21.9080  0.00  0.00     0.000 OA
ATOM     94   O  SGN B   5      14.307  19.543  19.9650  0.00  0.00     0.000 OA
ATOM     95   O  SGN B   5      14.950  17.622  21.1880  0.00  0.00     0.000 OA
ENDBRANCH 83 92
BRANCH 86 96
ATOM     96   C  SGN B   5      19.212  23.123  23.2720  0.00  0.00     0.000 C
ATOM     97   O  SGN B   5      19.043  24.029  22.1790  0.00  0.00     0.000 O
ATOM     98   S  SGN B   5      18.474  25.482  22.5490  0.00  0.00     0.000 S
ATOM     99   O  SGN B   5      18.611  26.202  21.3060  0.00  0.00     0.000 OA
ATOM    100   O  SGN B   5      17.137  25.316  22.9930  0.00  0.00     0.000 OA
ATOM    101   O  SGN B   5      19.346  25.954  23.5750  0.00  0.00     0.000 OA
ENDBRANCH 86 96
BRANCH 82 102
ATOM    102  O4  IDS B   6      16.926  19.798  24.1680  0.00  0.00     0.000 O
BRANCH 102 106
ATOM    103  C1  IDS B   6      16.249  18.080  27.3060  0.00  0.00     0.000 C
ATOM    104  C2  IDS B   6      15.104  18.684  26.4770  0.00  0.00     0.000 C
ATOM    105  C3  IDS B   6      15.341  20.101  25.9910  0.00  0.00     0.000 C
ATOM    106  C4  IDS B   6      16.763  20.325  25.5090  0.00  0.00     0.000 C
ATOM    107  C5  IDS B   6      17.748  19.664  26.4770  0.00  0.00     0.000 C
ATOM    108  O5  IDS B   6      17.482  18.270  26.6390  0.00  0.00     0.000 O
ATOM    109   O  IDS B   6      15.022  20.990  27.0490  0.00  0.00     0.000 O
ATOM    111  HD  IDS B   6      15.101  20.503  27.7610  0.00  0.00     0.000 HD
BRANCH 104 111
ATOM    111   O  IDS B   6      14.918  17.881  25.2590  0.00  0.00     0.000 O
ATOM    112   S  IDS B   6      13.591  16.995  25.1370  0.00  0.00     0.000 S
ATOM    113   O  IDS B   6      13.635  16.109  26.2900  0.00  0.00     0.000 OA
ATOM    114   O  IDS B   6      12.433  17.895  25.1000  0.00  0.00     0.000 OA
ATOM    115   O  IDS B   6      13.865  16.335  23.8790  0.00  0.00     0.000 OA
ENDBRANCH 104 111
BRANCH 107 116
ATOM    116   C  IDS B   6      19.169  19.863  25.9660  0.00  0.00     0.000 C
ATOM    117   O  IDS B   6      19.659  20.951  26.1360  0.00  0.00     0.000 OA
ATOM    118   O  IDS B   6      19.773  18.964  25.4030  0.00  0.00     0.000 OA
ENDBRANCH 107 116
BRANCH 103 119
ATOM    119  O4  SGN B   7      16.037  18.572  28.5530  0.00  0.00     0.000 O
BRANCH 119 123
ATOM    120  C1  SGN B   7      16.660  17.219  32.4610  0.00  0.00     0.000 C
ATOM    121  C2  SGN B   7      17.813  17.976  31.7760  0.00  0.00     0.000 C
ATOM    122  C3  SGN B   7      17.301  18.737  30.5470  0.00  0.00     0.000 C
ATOM    123  C4  SGN B   7      16.557  17.785  29.6260  0.00  0.00     0.000 C
ATOM    124  C5  SGN B   7      15.435  17.077  30.4020  0.00  0.00     0.000 C
ATOM    125  O5  SGN B   7      15.962  16.373  31.5490  0.00  0.00     0.000 O
ATOM    126   O  SGN B   7      18.413  19.346  29.8800  0.00  0.00     0.000 O
ATOM    128  HD  SGN B   7      18.111  18.930  30.5770  0.00  0.00     0.000 HD
BRANCH 121 130
ATOM    128   N  SGN B   7      18.865  17.501  32.6780  0.00  0.00     0.000 N
ATOM    130  HD  SGN B   7      19.472  17.733  32.1050  0.00  0.00     0.000 HD
ATOM    130   S  SGN B   7      19.825  18.512  33.4860  0.00  0.00     0.000 S
ATOM    131   O  SGN B   7      18.945  19.435  34.1180  0.00  0.00     0.000 OA
ATOM    132   O  SGN B   7      20.733  17.743  34.2590  0.00  0.00     0.000 OA
ATOM    133   O  SGN B   7      20.688  19.080  32.3100  0.00  0.00     0.000 OA
ENDBRANCH 121 130
BRANCH 124 134
ATOM    134   C  SGN B   7      14.714  16.029  29.6070  0.00  0.00     0.000 C
ATOM    135   O  SGN B   7      14.601  14.841  30.4100  0.00  0.00     0.000 O
ATOM    136   S  SGN B   7      13.740  13.672  29.8130  0.00  0.00     0.000 S
ATOM    137   O  SGN B   7      13.859  12.568  30.7360  0.00  0.00     0.000 OA
ATOM    138   O  SGN B   7      14.324  13.393  28.5210  0.00  0.00     0.000 OA
ATOM    139   O  SGN B   7      12.410  14.258  29.7590  0.00  0.00     0.000 OA
ENDBRANCH 124 134
BRANCH 120 140
ATOM    140  O4  IDS B   8      15.611  17.733  33.1140  0.00  0.00     0.000 O
BRANCH 140 144
ATOM    141  C1  IDS B   8      12.876  18.615  35.2820  0.00  0.00     0.000 C
ATOM    142  C2  IDS B   8      12.827  17.323  34.4190  0.00  0.00     0.000 C
ATOM    143  C3  IDS B   8      13.204  17.566  32.9460  0.00  0.00     0.000 C
ATOM    144  C4  IDS B   8      14.424  18.475  32.8090  0.00  0.00     0.000 C
ATOM    145  C5  IDS B   8      14.297  19.678  33.7570  0.00  0.00     0.000 C
ATOM    146  O5  IDS B   8      14.129  19.267  35.1110  0.00  0.00     0.000 O
BRANCH 142 147
ATOM    147   O  IDS B   8      13.790  16.328  34.9600  0.00  0.00     0.000 O
ATOM    148   S  IDS B   8      13.543  14.736  34.7700  0.00  0.00     0.000 S
ATOM    149   O  IDS B   8      12.159  14.549  34.3960  0.00  0.00     0.000 OA
ATOM    150   O  IDS B   8      14.466  14.322  33.7300  0.00  0.00     0.000 OA
ATOM    151   O  IDS B   8      13.839  14.146  36.0620  0.00  0.00     0.000 OA
ENDBRANCH 142 147
BRANCH 145 152
ATOM    152   C  IDS B   8      15.524  20.567  33.7400  0.00  0.00     0.000 C
ATOM    153   O  IDS B   8      15.917  21.035  32.6770  0.00  0.00     0.000 OA
ATOM    154   O  IDS B   8      16.096  20.823  34.7840  0.00  0.00     0.000 OA
ENDBRANCH 145 152
ENDBRANCH 140 144
ENDBRANCH 120 140
ENDBRANCH 119 123
ENDBRANCH 103 119
ENDBRANCH 102 106
ENDBRANCH 82 102
ENDBRANCH 81 85
ENDBRANCH 65 81
ENDBRANCH 64 68
ENDBRANCH 41 64
ENDBRANCH 40 44
ENDBRANCH 24 40
ENDBRANCH 23 27
ENDBRANCH 1 23
TORSDOF 31
ENDMDL
MODEL 30
REMARK VINA RESULT:      -7.2     11.202     16.676
ROOT
ATOM      1  C1  SGN B   1      29.544  10.709  15.6680  0.00  0.00     0.000 C
ATOM      2  C2  SGN B   1      31.012  10.295  15.4690  0.00  0.00     0.000 C
ATOM      3  C3  SGN B   1      31.253   9.829  14.0290  0.00  0.00     0.000 C
ATOM      4  C4  SGN B   1      30.289   8.703  13.6720  0.00  0.00     0.000 C
ATOM      5  C5  SGN B   1      28.867   9.131  14.0280  0.00  0.00     0.000 C
ATOM      6  O5  SGN B   1      28.813   9.517  15.4150  0.00  0.00     0.000 O
ATOM      7   O  SGN B   1      32.601   9.405  13.8610  0.00  0.00     0.000 O
ATOM      9  HD  SGN B   1      32.317   8.854  14.4660  0.00  0.00     0.000 HD
ATOM      9   O  SGN B   1      30.383   8.424  12.2870  0.00  0.00     0.000 O
ATOM     11  HD  SGN B   1      30.099   7.874  12.8920  0.00  0.00     0.000 HD
ENDROOT
BRANCH 2 13
ATOM     11   N  SGN B   1      31.485  10.564  16.8400  0.00  0.00     0.000 N
ATOM     13  HD  SGN B   1      31.156  11.202  16.3550  0.00  0.00     0.000 HD
ATOM     13   S  SGN B   1      32.049  12.003  17.2880  0.00  0.00     0.000 S
ATOM     14   O  SGN B   1      31.962  12.914  16.2150  0.00  0.00     0.000 OA
ATOM     15   O  SGN B   1      31.468  12.343  18.5440  0.00  0.00     0.000 OA
ATOM     16   O  SGN B   1      33.527  11.588  17.5620  0.00  0.00     0.000 OA
ENDBRANCH 2 13
BRANCH 5 17
ATOM     17   C  SGN B   1      27.831   8.054  13.8210  0.00  0.00     0.000 C
ATOM     18   O  SGN B   1      26.682   8.573  13.1220  0.00  0.00     0.000 O
ATOM     19   S  SGN B   1      25.255   8.156  13.7120  0.00  0.00     0.000 S
ATOM     20   O  SGN B   1      24.296   8.594  12.7210  0.00  0.00     0.000 OA
ATOM     21   O  SGN B   1      25.335   6.720  13.8450  0.00  0.00     0.000 OA
ATOM     22   O  SGN B   1      25.148   8.858  14.9730  0.00  0.00     0.000 OA
ENDBRANCH 5 17
BRANCH 1 23
ATOM     23  O4  IDS B   2      28.736  11.803  15.5710  0.00  0.00     0.000 O
BRANCH 23 27
ATOM     24  C1  IDS B   2      25.950  14.731  14.6240  0.00  0.00     0.000 C
ATOM     25  C2  IDS B   2      25.372  13.429  15.2210  0.00  0.00     0.000 C
ATOM     26  C3  IDS B   2      26.481  12.556  15.8020  0.00  0.00     0.000 C
ATOM     27  C4  IDS B   2      27.593  12.246  14.8090  0.00  0.00     0.000 C
ATOM     28  C5  IDS B   2      27.860  13.474  13.9160  0.00  0.00     0.000 C
ATOM     29  O5  IDS B   2      27.379  14.661  14.5290  0.00  0.00     0.000 O
ATOM     30   O  IDS B   2      25.927  11.316  16.2270  0.00  0.00     0.000 O
ATOM     32  HD  IDS B   2      25.791  10.762  15.5760  0.00  0.00     0.000 HD
BRANCH 25 32
ATOM     32   O  IDS B   2      24.396  13.694  16.3070  0.00  0.00     0.000 O
ATOM     33   S  IDS B   2      22.856  13.102  16.2570  0.00  0.00     0.000 S
ATOM     34   O  IDS B   2      22.141  13.742  17.3500  0.00  0.00     0.000 OA
ATOM     35   O  IDS B   2      22.256  13.422  14.9700  0.00  0.00     0.000 OA
ATOM     36   O  IDS B   2      22.978  11.679  16.4700  0.00  0.00     0.000 OA
ENDBRANCH 25 32
BRANCH 28 37
ATOM     37   C  IDS B   2      29.308  13.723  13.4460  0.00  0.00     0.000 C
ATOM     38   O  IDS B   2      29.720  12.850  12.7200  0.00  0.00     0.000 OA
ATOM     39   O  IDS B   2      30.019  14.729  13.6910  0.00  0.00     0.000 OA
ENDBRANCH 28 37
BRANCH 24 40
ATOM     40  O4  SUS B   3      25.133  15.606  14.0010  0.00  0.00     0.000 O
BRANCH 40 44
ATOM     41  C1  SUS B   3      25.319  19.783  13.7570  0.00  0.00     0.000 C
ATOM     42  C2  SUS B   3      26.499  18.989  13.1630  0.00  0.00     0.000 C
ATOM     43  C3  SUS B   3      26.058  17.550  12.9040  0.00  0.00     0.000 C
ATOM     44  C4  SUS B   3      25.507  16.965  14.1950  0.00  0.00     0.000 C
ATOM     45  C5  SUS B   3      24.301  17.775  14.6250  0.00  0.00     0.000 C
ATOM     46  O5  SUS B   3      24.735  19.125  14.8870  0.00  0.00     0.000 O
BRANCH 42 49
ATOM     47   N  SUS B   3      26.963  19.810  12.0310  0.00  0.00     0.000 N
ATOM     49  HD  SUS B   3      26.926  19.445  11.2470  0.00  0.00     0.000 HD
ATOM     49   S  SUS B   3      28.445  20.379  12.2460  0.00  0.00     0.000 S
ATOM     50   O  SUS B   3      29.342  19.311  12.4550  0.00  0.00     0.000 OA
ATOM     51   O  SUS B   3      28.619  20.968  10.8230  0.00  0.00     0.000 OA
ATOM     52   O  SUS B   3      28.416  21.406  13.2100  0.00  0.00     0.000 OA
ENDBRANCH 42 49
BRANCH 43 53
ATOM     53   O  SUS B   3      27.242  16.783  12.4700  0.00  0.00     0.000 O
ATOM     54   S  SUS B   3      27.297  16.318  10.8940  0.00  0.00     0.000 S
ATOM     55   O  SUS B   3      27.528  17.513  10.0950  0.00  0.00     0.000 OA
ATOM     56   O  SUS B   3      28.390  15.362  10.8480  0.00  0.00     0.000 OA
ATOM     57   O  SUS B   3      25.994  15.720  10.5920  0.00  0.00     0.000 OA
ENDBRANCH 43 53
BRANCH 45 58
ATOM     58   C  SUS B   3      23.635  17.192  15.8520  0.00  0.00     0.000 C
ATOM     59   S  SUS B   3      23.688  17.255  18.4170  0.00  0.00     0.000 S
ATOM     60   O  SUS B   3      24.113  17.875  17.0230  0.00  0.00     0.000 O
ATOM     61   O  SUS B   3      24.562  16.113  18.6060  0.00  0.00     0.000 OA
ATOM     62   O  SUS B   3      24.000  18.346  19.3010  0.00  0.00     0.000 OA
ATOM     63   O  SUS B   3      22.307  16.950  18.2920  0.00  0.00     0.000 OA
ENDBRANCH 45 58
BRANCH 41 64
ATOM     64  O4  IDS B   4      24.408  20.205  12.8200  0.00  0.00     0.000 O
BRANCH 64 68
ATOM     65  C1  IDS B   4      22.063  22.291  10.9700  0.00  0.00     0.000 C
ATOM     66  C2  IDS B   4      23.568  22.391  10.6950  0.00  0.00     0.000 C
ATOM     67  C3  IDS B   4      24.430  22.476  11.9430  0.00  0.00     0.000 C
ATOM     68  C4  IDS B   4      23.954  21.557  13.0520  0.00  0.00     0.000 C
ATOM     69  C5  IDS B   4      22.428  21.681  13.1530  0.00  0.00     0.000 C
ATOM     70  O5  IDS B   4      21.839  21.264  11.9190  0.00  0.00     0.000 O
ATOM     71   O  IDS B   4      24.395  23.817  12.3860  0.00  0.00     0.000 O
ATOM     73  HD  IDS B   4      24.295  23.174  11.8150  0.00  0.00     0.000 HD
BRANCH 66 73
ATOM     73   O  IDS B   4      24.004  21.171  10.0010  0.00  0.00     0.000 O
ATOM     74   S  IDS B   4      24.750  21.336   8.5750  0.00  0.00     0.000 S
ATOM     75   O  IDS B   4      23.849  22.083   7.7240  0.00  0.00     0.000 OA
ATOM     76   O  IDS B   4      24.932  19.963   8.1750  0.00  0.00     0.000 OA
ATOM     77   O  IDS B   4      25.979  22.038   8.8610  0.00  0.00     0.000 OA
ENDBRANCH 66 73
BRANCH 69 78
ATOM     78   C  IDS B   4      21.819  20.987  14.3640  0.00  0.00     0.000 C
ATOM     79   O  IDS B   4      21.720  21.615  15.4170  0.00  0.00     0.000 OA
ATOM     80   O  IDS B   4      21.345  19.845  14.2200  0.00  0.00     0.000 OA
ENDBRANCH 69 78
BRANCH 65 81
ATOM     81  O4  SGN B   5      21.575  23.526  11.2760  0.00  0.00     0.000 O
BRANCH 81 85
ATOM     82  C1  SGN B   5      17.904  25.352  12.1860  0.00  0.00     0.000 C
ATOM     83  C2  SGN B   5      18.966  25.328  13.2960  0.00  0.00     0.000 C
ATOM     84  C3  SGN B   5      20.347  25.068  12.6790  0.00  0.00     0.000 C
ATOM     85  C4  SGN B   5      20.301  23.784  11.8700  0.00  0.00     0.000 C
ATOM     86  C5  SGN B   5      19.232  23.936  10.7900  0.00  0.00     0.000 C
ATOM     87  O5  SGN B   5      17.960  24.158  11.4280  0.00  0.00     0.000 O
ATOM     88   O  SGN B   5      21.320  24.988  13.6980  0.00  0.00     0.000 O
ATOM     90  HD  SGN B   5      21.183  25.674  13.1880  0.00  0.00     0.000 HD
BRANCH 83 92
ATOM     90   N  SGN B   5      17.839  25.556  14.2210  0.00  0.00     0.000 N
ATOM     92  HD  SGN B   5      17.449  24.810  14.4250  0.00  0.00     0.000 HD
ATOM     92   S  SGN B   5      18.061  26.560  15.4440  0.00  0.00     0.000 S
ATOM     93   O  SGN B   5      16.809  26.556  16.1380  0.00  0.00     0.000 OA
ATOM     94   O  SGN B   5      19.242  26.114  16.1000  0.00  0.00     0.000 OA
ATOM     95   O  SGN B   5      18.379  27.890  14.7960  0.00  0.00     0.000 OA
ENDBRANCH 83 92
BRANCH 86 96
ATOM     96   C  SGN B   5      19.082  22.727   9.8910  0.00  0.00     0.000 C
ATOM     97   O  SGN B   5      18.581  21.610  10.6310  0.00  0.00     0.000 O
ATOM     98   S  SGN B   5      17.312  20.859  10.0020  0.00  0.00     0.000 S
ATOM     99   O  SGN B   5      17.183  19.694  10.8440  0.00  0.00     0.000 OA
ATOM    100   O  SGN B   5      16.214  21.755  10.0600  0.00  0.00     0.000 OA
ATOM    101   O  SGN B   5      17.708  20.550   8.6670  0.00  0.00     0.000 OA
ENDBRANCH 86 96
BRANCH 82 102
ATOM    102  O4  IDS B   6      18.022  26.438  11.3700  0.00  0.00     0.000 O
BRANCH 102 106
ATOM    103  C1  IDS B   6      17.034  29.545   9.7510  0.00  0.00     0.000 C
ATOM    104  C2  IDS B   6      17.048  29.428  11.2830  0.00  0.00     0.000 C
ATOM    105  C3  IDS B   6      16.387  28.180  11.8370  0.00  0.00     0.000 C
ATOM    106  C4  IDS B   6      16.705  26.937  11.0250  0.00  0.00     0.000 C
ATOM    107  C5  IDS B   6      16.619  27.260   9.5310  0.00  0.00     0.000 C
ATOM    108  O5  IDS B   6      17.484  28.337   9.1670  0.00  0.00     0.000 O
ATOM    109   O  IDS B   6      14.987  28.406  11.8850  0.00  0.00     0.000 O
ATOM    111  HD  IDS B   6      14.857  29.030  11.2980  0.00  0.00     0.000 HD
BRANCH 104 111
ATOM    111   O  IDS B   6      18.442  29.367  11.7460  0.00  0.00     0.000 O
ATOM    112   S  IDS B   6      19.069  30.676  12.4220  0.00  0.00     0.000 S
ATOM    113   O  IDS B   6      18.949  31.707  11.4030  0.00  0.00     0.000 OA
ATOM    114   O  IDS B   6      18.337  30.953  13.6630  0.00  0.00     0.000 OA
ATOM    115   O  IDS B   6      20.422  30.208  12.6280  0.00  0.00     0.000 OA
ENDBRANCH 104 111
BRANCH 107 116
ATOM    116   C  IDS B   6      16.975  26.017   8.7260  0.00  0.00     0.000 C
ATOM    117   O  IDS B   6      16.202  25.094   8.7820  0.00  0.00     0.000 OA
ATOM    118   O  IDS B   6      18.001  25.960   8.0650  0.00  0.00     0.000 OA
ENDBRANCH 107 116
BRANCH 103 119
ATOM    119  O4  SGN B   7      15.802  30.046   9.4780  0.00  0.00     0.000 O
BRANCH 119 123
ATOM    120  C1  SGN B   7      14.146  32.705   6.7060  0.00  0.00     0.000 C
ATOM    121  C2  SGN B   7      14.553  31.308   6.2000  0.00  0.00     0.000 C
ATOM    122  C3  SGN B   7      14.752  30.346   7.3780  0.00  0.00     0.000 C
ATOM    123  C4  SGN B   7      15.730  30.948   8.3730  0.00  0.00     0.000 C
ATOM    124  C5  SGN B   7      15.240  32.338   8.8110  0.00  0.00     0.000 C
ATOM    125  O5  SGN B   7      15.068  33.210   7.6710  0.00  0.00     0.000 O
ATOM    126   O  SGN B   7      15.224  29.089   6.8790  0.00  0.00     0.000 O
ATOM    128  HD  SGN B   7      14.894  29.871   6.7080  0.00  0.00     0.000 HD
BRANCH 121 130
ATOM    128   N  SGN B   7      14.674  31.583   4.7660  0.00  0.00     0.000 N
ATOM    130  HD  SGN B   7      15.033  30.805   4.6400  0.00  0.00     0.000 HD
ATOM    130   S  SGN B   7      13.729  30.873   3.6720  0.00  0.00     0.000 S
ATOM    131   O  SGN B   7      12.402  31.059   4.1490  0.00  0.00     0.000 OA
ATOM    132   O  SGN B   7      14.102  31.344   2.3870  0.00  0.00     0.000 OA
ATOM    133   O  SGN B   7      14.283  29.409   3.7320  0.00  0.00     0.000 OA
ENDBRANCH 121 130
BRANCH 124 134
ATOM    134   C  SGN B   7      16.199  33.065   9.7070  0.00  0.00     0.000 C
ATOM    135   O  SGN B   7      16.220  34.451   9.3270  0.00  0.00     0.000 O
ATOM    136   S  SGN B   7      17.051  35.417  10.2470  0.00  0.00     0.000 S
ATOM    137   O  SGN B   7      17.011  36.714   9.6150  0.00  0.00     0.000 OA
ATOM    138   O  SGN B   7      18.380  34.850  10.2870  0.00  0.00     0.000 OA
ATOM    139   O  SGN B   7      16.328  35.349  11.5070  0.00  0.00     0.000 OA
ENDBRANCH 124 134
BRANCH 120 140
ATOM    140  O4  IDS B   8      13.003  33.064   7.3010  0.00  0.00     0.000 O
BRANCH 140 144
ATOM    141  C1  IDS B   8      10.174  32.902   9.5210  0.00  0.00     0.000 C
ATOM    142  C2  IDS B   8      10.736  31.618   8.8460  0.00  0.00     0.000 C
ATOM    143  C3  IDS B   8      10.954  31.780   7.3310  0.00  0.00     0.000 C
ATOM    144  C4  IDS B   8      11.607  33.117   6.9850  0.00  0.00     0.000 C
ATOM    145  C5  IDS B   8      10.931  34.254   7.7680  0.00  0.00     0.000 C
ATOM    146  O5  IDS B   8      10.976  34.024   9.1740  0.00  0.00     0.000 O
BRANCH 142 147
ATOM    147   O  IDS B   8      12.052  31.278   9.4470  0.00  0.00     0.000 O
ATOM    148   S  IDS B   8      12.176  30.146  10.6020  0.00  0.00     0.000 S
ATOM    149   O  IDS B   8      10.851  29.909  11.1280  0.00  0.00     0.000 OA
ATOM    150   O  IDS B   8      12.736  28.980   9.9430  0.00  0.00     0.000 OA
ATOM    151   O  IDS B   8      13.062  30.715  11.6010  0.00  0.00     0.000 OA
ENDBRANCH 142 147
BRANCH 145 152
ATOM    152   C  IDS B   8      11.600  35.595   7.5420  0.00  0.00     0.000 C
ATOM    153   O  IDS B   8      12.153  36.159   8.4790  0.00  0.00     0.000 OA
ATOM    154   O  IDS B   8      11.598  36.088   6.4290  0.00  0.00     0.000 OA
ENDBRANCH 145 152
ENDBRANCH 140 144
ENDBRANCH 120 140
ENDBRANCH 119 123
ENDBRANCH 103 119
ENDBRANCH 102 106
ENDBRANCH 82 102
ENDBRANCH 81 85
ENDBRANCH 65 81
ENDBRANCH 64 68
ENDBRANCH 41 64
ENDBRANCH 40 44
ENDBRANCH 24 40
ENDBRANCH 23 27
ENDBRANCH 1 23
TORSDOF 31
ENDMDL
MODEL 31
REMARK VINA RESULT:      -7.2     12.148     16.809
ROOT
ATOM      1  C1  SGN B   1      48.735  11.229  21.5710  0.00  0.00     0.000 C
ATOM      2  C2  SGN B   1      48.759  11.417  20.0450  0.00  0.00     0.000 C
ATOM      3  C3  SGN B   1      47.368  11.790  19.5220  0.00  0.00     0.000 C
ATOM      4  C4  SGN B   1      46.345  10.744  19.9530  0.00  0.00     0.000 C
ATOM      5  C5  SGN B   1      46.476  10.507  21.4560  0.00  0.00     0.000 C
ATOM      6  O5  SGN B   1      47.835  10.148  21.7700  0.00  0.00     0.000 O
ATOM      7   O  SGN B   1      47.384  11.919  18.1060  0.00  0.00     0.000 O
ATOM      9  HD  SGN B   1      47.613  11.091  18.2100  0.00  0.00     0.000 HD
ATOM      9   O  SGN B   1      45.043  11.203  19.6420  0.00  0.00     0.000 O
ATOM     11  HD  SGN B   1      45.272  10.375  19.7460  0.00  0.00     0.000 HD
ENDROOT
BRANCH 2 13
ATOM     11   N  SGN B   1      50.168  11.161  19.6930  0.00  0.00     0.000 N
ATOM     13  HD  SGN B   1      49.967  11.721  20.3210  0.00  0.00     0.000 HD
ATOM     13   S  SGN B   1      51.319  12.267  19.8940  0.00  0.00     0.000 S
ATOM     14   O  SGN B   1      50.777  13.430  20.4810  0.00  0.00     0.000 OA
ATOM     15   O  SGN B   1      52.447  11.640  20.4950  0.00  0.00     0.000 OA
ATOM     16   O  SGN B   1      51.669  12.500  18.3920  0.00  0.00     0.000 OA
ENDBRANCH 2 13
BRANCH 5 17
ATOM     17   C  SGN B   1      45.586   9.409  21.9840  0.00  0.00     0.000 C
ATOM     18   O  SGN B   1      45.383   8.388  20.9870  0.00  0.00     0.000 O
ATOM     19   S  SGN B   1      43.879   7.874  20.8050  0.00  0.00     0.000 S
ATOM     20   O  SGN B   1      43.979   6.717  19.9420  0.00  0.00     0.000 OA
ATOM     21   O  SGN B   1      43.450   7.559  22.1480  0.00  0.00     0.000 OA
ATOM     22   O  SGN B   1      43.171   8.984  20.2070  0.00  0.00     0.000 OA
ENDBRANCH 5 17
BRANCH 1 23
ATOM     23  O4  IDS B   2      48.900  11.941  22.7230  0.00  0.00     0.000 O
BRANCH 23 27
ATOM     24  C1  IDS B   2      45.393  13.791  23.9500  0.00  0.00     0.000 C
ATOM     25  C2  IDS B   2      46.347  14.663  23.1050  0.00  0.00     0.000 C
ATOM     26  C3  IDS B   2      47.441  13.814  22.4650  0.00  0.00     0.000 C
ATOM     27  C4  IDS B   2      48.223  12.975  23.4670  0.00  0.00     0.000 C
ATOM     28  C5  IDS B   2      47.279  12.454  24.5690  0.00  0.00     0.000 C
ATOM     29  O5  IDS B   2      45.929  12.473  24.1310  0.00  0.00     0.000 O
ATOM     30   O  IDS B   2      48.368  14.666  21.8020  0.00  0.00     0.000 O
ATOM     32  HD  IDS B   2      48.932  15.041  22.3400  0.00  0.00     0.000 HD
BRANCH 25 32
ATOM     32   O  IDS B   2      45.637  15.377  22.0150  0.00  0.00     0.000 O
ATOM     33   S  IDS B   2      45.594  17.024  21.9350  0.00  0.00     0.000 S
ATOM     34   O  IDS B   2      44.640  17.354  20.8880  0.00  0.00     0.000 OA
ATOM     35   O  IDS B   2      45.177  17.561  23.2230  0.00  0.00     0.000 OA
ATOM     36   O  IDS B   2      46.932  17.433  21.5750  0.00  0.00     0.000 OA
ENDBRANCH 25 32
BRANCH 28 37
ATOM     37   C  IDS B   2      47.574  11.065  25.1730  0.00  0.00     0.000 C
ATOM     38   O  IDS B   2      46.601  10.349  25.1940  0.00  0.00     0.000 OA
ATOM     39   O  IDS B   2      48.687  10.629  25.5570  0.00  0.00     0.000 OA
ENDBRANCH 28 37
BRANCH 24 40
ATOM     40  O4  SUS B   3      44.396  14.369  24.6530  0.00  0.00     0.000 O
BRANCH 40 44
ATOM     41  C1  SUS B   3      40.535  12.986  25.5030  0.00  0.00     0.000 C
ATOM     42  C2  SUS B   3      41.689  12.425  26.3570  0.00  0.00     0.000 C
ATOM     43  C3  SUS B   3      42.893  13.358  26.2520  0.00  0.00     0.000 C
ATOM     44  C4  SUS B   3      43.244  13.543  24.7840  0.00  0.00     0.000 C
ATOM     45  C5  SUS B   3      42.068  14.184  24.0760  0.00  0.00     0.000 C
ATOM     46  O5  SUS B   3      40.945  13.283  24.1640  0.00  0.00     0.000 O
BRANCH 42 49
ATOM     47   N  SUS B   3      41.277  12.183  27.7510  0.00  0.00     0.000 N
ATOM     49  HD  SUS B   3      41.787  12.513  28.3680  0.00  0.00     0.000 HD
ATOM     49   S  SUS B   3      41.054  10.629  28.0680  0.00  0.00     0.000 S
ATOM     50   O  SUS B   3      42.233   9.908  27.7910  0.00  0.00     0.000 OA
ATOM     51   O  SUS B   3      40.855  10.785  29.5980  0.00  0.00     0.000 OA
ATOM     52   O  SUS B   3      39.863  10.193  27.4540  0.00  0.00     0.000 OA
ENDBRANCH 42 49
BRANCH 43 53
ATOM     53   O  SUS B   3      44.022  12.725  26.9620  0.00  0.00     0.000 O
ATOM     54   S  SUS B   3      44.599  13.500  28.2920  0.00  0.00     0.000 S
ATOM     55   O  SUS B   3      43.599  13.366  29.3430  0.00  0.00     0.000 OA
ATOM     56   O  SUS B   3      45.848  12.818  28.5820  0.00  0.00     0.000 OA
ATOM     57   O  SUS B   3      44.781  14.903  27.9090  0.00  0.00     0.000 OA
ENDBRANCH 43 53
BRANCH 45 58
ATOM     58   C  SUS B   3      42.379  14.493  22.6280  0.00  0.00     0.000 C
ATOM     59   S  SUS B   3      41.669  13.919  20.2290  0.00  0.00     0.000 S
ATOM     60   O  SUS B   3      41.385  13.883  21.7870  0.00  0.00     0.000 O
ATOM     61   O  SUS B   3      42.648  12.874  19.9980  0.00  0.00     0.000 OA
ATOM     62   O  SUS B   3      40.369  13.587  19.7120  0.00  0.00     0.000 OA
ATOM     63   O  SUS B   3      42.114  15.240  19.9540  0.00  0.00     0.000 OA
ENDBRANCH 45 58
BRANCH 41 64
ATOM     64  O4  IDS B   4      39.836  13.998  26.1140  0.00  0.00     0.000 O
BRANCH 64 68
ATOM     65  C1  IDS B   4      36.910  15.795  27.3330  0.00  0.00     0.000 C
ATOM     66  C2  IDS B   4      37.023  14.278  27.5310  0.00  0.00     0.000 C
ATOM     67  C3  IDS B   4      37.456  13.514  26.2920  0.00  0.00     0.000 C
ATOM     68  C4  IDS B   4      38.543  14.226  25.5100  0.00  0.00     0.000 C
ATOM     69  C5  IDS B   4      38.167  15.711  25.4130  0.00  0.00     0.000 C
ATOM     70  O5  IDS B   4      38.101  16.266  26.7290  0.00  0.00     0.000 O
ATOM     71   O  IDS B   4      36.312  13.349  25.4790  0.00  0.00     0.000 O
ATOM     73  HD  IDS B   4      36.738  13.515  26.2150  0.00  0.00     0.000 HD
BRANCH 66 73
ATOM     73   O  IDS B   4      38.058  14.009  28.5390  0.00  0.00     0.000 O
ATOM     74   S  IDS B   4      37.695  12.993  29.7450  0.00  0.00     0.000 S
ATOM     75   O  IDS B   4      36.515  13.527  30.3910  0.00  0.00     0.000 OA
ATOM     76   O  IDS B   4      38.887  13.056  30.5540  0.00  0.00     0.000 OA
ATOM     77   O  IDS B   4      37.472  11.713  29.1160  0.00  0.00     0.000 OA
ENDBRANCH 66 73
BRANCH 69 78
ATOM     78   C  IDS B   4      39.045  16.522  24.4710  0.00  0.00     0.000 C
ATOM     79   O  IDS B   4      38.566  16.915  23.4080  0.00  0.00     0.000 OA
ATOM     80   O  IDS B   4      40.183  16.852  24.8520  0.00  0.00     0.000 OA
ENDBRANCH 69 78
BRANCH 65 81
ATOM     81  O4  SGN B   5      35.742  16.083  26.6930  0.00  0.00     0.000 O
BRANCH 81 85
ATOM     82  C1  SGN B   5      33.023  19.206  25.9960  0.00  0.00     0.000 C
ATOM     83  C2  SGN B   5      34.108  18.976  24.9340  0.00  0.00     0.000 C
ATOM     84  C3  SGN B   5      34.693  17.566  25.0950  0.00  0.00     0.000 C
ATOM     85  C4  SGN B   5      35.201  17.394  26.5150  0.00  0.00     0.000 C
ATOM     86  C5  SGN B   5      34.035  17.622  27.4730  0.00  0.00     0.000 C
ATOM     87  O5  SGN B   5      33.542  18.963  27.2900  0.00  0.00     0.000 O
ATOM     88   O  SGN B   5      35.731  17.368  24.1590  0.00  0.00     0.000 O
ATOM     90  HD  SGN B   5      34.924  17.063  24.0860  0.00  0.00     0.000 HD
BRANCH 83 92
ATOM     90   N  SGN B   5      33.257  19.467  23.8330  0.00  0.00     0.000 N
ATOM     92  HD  SGN B   5      32.433  19.542  24.0870  0.00  0.00     0.000 HD
ATOM     92   S  SGN B   5      33.803  20.676  22.9420  0.00  0.00     0.000 S
ATOM     93   O  SGN B   5      32.762  20.911  21.9870  0.00  0.00     0.000 OA
ATOM     94   O  SGN B   5      34.172  21.697  23.8610  0.00  0.00     0.000 OA
ATOM     95   O  SGN B   5      35.077  20.149  22.3180  0.00  0.00     0.000 OA
ENDBRANCH 83 92
BRANCH 86 96
ATOM     96   C  SGN B   5      34.394  17.469  28.9360  0.00  0.00     0.000 C
ATOM     97   O  SGN B   5      34.890  18.702  29.4630  0.00  0.00     0.000 O
ATOM     98   S  SGN B   5      34.210  19.215  30.8220  0.00  0.00     0.000 S
ATOM     99   O  SGN B   5      35.044  20.333  31.1930  0.00  0.00     0.000 OA
ATOM    100   O  SGN B   5      32.865  19.552  30.5230  0.00  0.00     0.000 OA
ATOM    101   O  SGN B   5      34.321  18.107  31.7140  0.00  0.00     0.000 OA
ENDBRANCH 86 96
BRANCH 82 102
ATOM    102  O4  IDS B   6      31.910  18.449  25.7810  0.00  0.00     0.000 O
BRANCH 102 106
ATOM    103  C1  IDS B   6      28.333  18.151  25.1740  0.00  0.00     0.000 C
ATOM    104  C2  IDS B   6      29.124  19.352  24.6340  0.00  0.00     0.000 C
ATOM    105  C3  IDS B   6      30.051  20.014  25.6350  0.00  0.00     0.000 C
ATOM    106  C4  IDS B   6      30.786  19.011  26.5060  0.00  0.00     0.000 C
ATOM    107  C5  IDS B   6      29.821  17.910  26.9540  0.00  0.00     0.000 C
ATOM    108  O5  IDS B   6      29.203  17.258  25.8430  0.00  0.00     0.000 O
ATOM    109   O  IDS B   6      29.281  20.901  26.4300  0.00  0.00     0.000 O
ATOM    111  HD  IDS B   6      28.474  20.593  26.3640  0.00  0.00     0.000 HD
BRANCH 104 111
ATOM    111   O  IDS B   6      29.996  18.899  23.5390  0.00  0.00     0.000 O
ATOM    112   S  IDS B   6      29.542  19.212  22.0360  0.00  0.00     0.000 S
ATOM    113   O  IDS B   6      28.241  18.574  21.9060  0.00  0.00     0.000 OA
ATOM    114   O  IDS B   6      29.532  20.667  21.8480  0.00  0.00     0.000 OA
ATOM    115   O  IDS B   6      30.603  18.532  21.3250  0.00  0.00     0.000 OA
ENDBRANCH 104 111
BRANCH 107 116
ATOM    116   C  IDS B   6      30.577  16.890  27.7960  0.00  0.00     0.000 C
ATOM    117   O  IDS B   6      30.816  15.829  27.2770  0.00  0.00     0.000 OA
ATOM    118   O  IDS B   6      30.913  17.137  28.9440  0.00  0.00     0.000 OA
ENDBRANCH 107 116
BRANCH 103 119
ATOM    119  O4  SGN B   7      27.278  18.721  25.8110  0.00  0.00     0.000 O
BRANCH 119 123
ATOM    120  C1  SGN B   7      23.716  17.353  27.5230  0.00  0.00     0.000 C
ATOM    121  C2  SGN B   7      24.956  17.443  28.4330  0.00  0.00     0.000 C
ATOM    122  C3  SGN B   7      26.036  18.320  27.7850  0.00  0.00     0.000 C
ATOM    123  C4  SGN B   7      26.336  17.814  26.3840  0.00  0.00     0.000 C
ATOM    124  C5  SGN B   7      25.038  17.754  25.5610  0.00  0.00     0.000 C
ATOM    125  O5  SGN B   7      24.052  16.918  26.2070  0.00  0.00     0.000 O
ATOM    126   O  SGN B   7      27.207  18.302  28.6090  0.00  0.00     0.000 O
ATOM    128  HD  SGN B   7      26.370  18.102  28.5160  0.00  0.00     0.000 HD
BRANCH 121 130
ATOM    128   N  SGN B   7      24.653  16.506  29.5170  0.00  0.00     0.000 N
ATOM    130  HD  SGN B   7      25.433  16.646  29.8660  0.00  0.00     0.000 HD
ATOM    130   S  SGN B   7      24.345  17.000  31.0190  0.00  0.00     0.000 S
ATOM    131   O  SGN B   7      23.351  18.010  30.8820  0.00  0.00     0.000 OA
ATOM    132   O  SGN B   7      24.100  15.858  31.8230  0.00  0.00     0.000 OA
ATOM    133   O  SGN B   7      25.768  17.491  31.4510  0.00  0.00     0.000 OA
ENDBRANCH 121 130
BRANCH 124 134
ATOM    134   C  SGN B   7      25.212  17.157  24.1960  0.00  0.00     0.000 C
ATOM    135   O  SGN B   7      24.099  16.285  23.9320  0.00  0.00     0.000 O
ATOM    136   S  SGN B   7      24.014  15.677  22.4860  0.00  0.00     0.000 S
ATOM    137   O  SGN B   7      22.892  14.768  22.4940  0.00  0.00     0.000 OA
ATOM    138   O  SGN B   7      25.280  15.009  22.2820  0.00  0.00     0.000 OA
ATOM    139   O  SGN B   7      23.815  16.858  21.6610  0.00  0.00     0.000 OA
ENDBRANCH 124 134
BRANCH 120 140
ATOM    140  O4  IDS B   8      22.854  18.326  27.2080  0.00  0.00     0.000 O
BRANCH 140 144
ATOM    141  C1  IDS B   8      21.021  21.263  26.2210  0.00  0.00     0.000 C
ATOM    142  C2  IDS B   8      21.702  21.177  27.6170  0.00  0.00     0.000 C
ATOM    143  C3  IDS B   8      21.389  19.866  28.3620  0.00  0.00     0.000 C
ATOM    144  C4  IDS B   8      21.478  18.649  27.4420  0.00  0.00     0.000 C
ATOM    145  C5  IDS B   8      20.770  18.939  26.1100  0.00  0.00     0.000 C
ATOM    146  O5  IDS B   8      21.309  20.092  25.4670  0.00  0.00     0.000 O
BRANCH 142 147
ATOM    147   O  IDS B   8      23.178  21.248  27.4530  0.00  0.00     0.000 O
ATOM    148   S  IDS B   8      24.092  22.116  28.4750  0.00  0.00     0.000 S
ATOM    149   O  IDS B   8      23.215  23.012  29.1930  0.00  0.00     0.000 OA
ATOM    150   O  IDS B   8      24.734  21.144  29.3400  0.00  0.00     0.000 OA
ATOM    151   O  IDS B   8      25.028  22.834  27.6320  0.00  0.00     0.000 OA
ENDBRANCH 142 147
BRANCH 145 152
ATOM    152   C  IDS B   8      20.910  17.804  25.1160  0.00  0.00     0.000 C
ATOM    153   O  IDS B   8      20.681  16.654  25.4760  0.00  0.00     0.000 OA
ATOM    154   O  IDS B   8      21.227  18.047  23.9660  0.00  0.00     0.000 OA
ENDBRANCH 145 152
ENDBRANCH 140 144
ENDBRANCH 120 140
ENDBRANCH 119 123
ENDBRANCH 103 119
ENDBRANCH 102 106
ENDBRANCH 82 102
ENDBRANCH 81 85
ENDBRANCH 65 81
ENDBRANCH 64 68
ENDBRANCH 41 64
ENDBRANCH 40 44
ENDBRANCH 24 40
ENDBRANCH 23 27
ENDBRANCH 1 23
TORSDOF 31
ENDMDL
MODEL 32
REMARK VINA RESULT:      -7.2     10.489     14.319
ROOT
ATOM      1  C1  SGN B   1      37.636  17.328  27.4300  0.00  0.00     0.000 C
ATOM      2  C2  SGN B   1      38.007  18.357  26.3500  0.00  0.00     0.000 C
ATOM      3  C3  SGN B   1      37.154  18.156  25.0930  0.00  0.00     0.000 C
ATOM      4  C4  SGN B   1      37.291  16.724  24.5870  0.00  0.00     0.000 C
ATOM      5  C5  SGN B   1      37.048  15.760  25.7450  0.00  0.00     0.000 C
ATOM      6  O5  SGN B   1      37.941  16.076  26.8310  0.00  0.00     0.000 O
ATOM      7   O  SGN B   1      37.531  19.082  24.0800  0.00  0.00     0.000 O
ATOM      9  HD  SGN B   1      38.265  18.638  24.1950  0.00  0.00     0.000 HD
ATOM      9   O  SGN B   1      36.348  16.497  23.5560  0.00  0.00     0.000 O
ATOM     11  HD  SGN B   1      37.083  16.053  23.6710  0.00  0.00     0.000 HD
ENDROOT
BRANCH 2 13
ATOM     11   N  SGN B   1      39.060  19.060  27.1080  0.00  0.00     0.000 N
ATOM     13  HD  SGN B   1      38.244  19.043  27.4000  0.00  0.00     0.000 HD
ATOM     13   S  SGN B   1      38.741  20.321  28.0550  0.00  0.00     0.000 S
ATOM     14   O  SGN B   1      37.354  20.579  28.0690  0.00  0.00     0.000 OA
ATOM     15   O  SGN B   1      39.432  20.144  29.2880  0.00  0.00     0.000 OA
ATOM     16   O  SGN B   1      39.512  21.408  27.2460  0.00  0.00     0.000 OA
ENDBRANCH 2 13
BRANCH 5 17
ATOM     17   C  SGN B   1      37.264  14.309  25.3930  0.00  0.00     0.000 C
ATOM     18   O  SGN B   1      36.846  13.449  26.4720  0.00  0.00     0.000 O
ATOM     19   S  SGN B   1      37.848  12.263  26.8520  0.00  0.00     0.000 S
ATOM     20   O  SGN B   1      37.109  11.427  27.7740  0.00  0.00     0.000 OA
ATOM     21   O  SGN B   1      38.130  11.621  25.5880  0.00  0.00     0.000 OA
ATOM     22   O  SGN B   1      38.994  12.913  27.4490  0.00  0.00     0.000 OA
ENDBRANCH 5 17
BRANCH 1 23
ATOM     23  O4  IDS B   2      36.784  17.166  28.4830  0.00  0.00     0.000 O
BRANCH 23 27
ATOM     24  C1  IDS B   2      33.120  17.577  30.3890  0.00  0.00     0.000 C
ATOM     25  C2  IDS B   2      33.384  18.565  29.2310  0.00  0.00     0.000 C
ATOM     26  C3  IDS B   2      34.605  18.141  28.4200  0.00  0.00     0.000 C
ATOM     27  C4  IDS B   2      35.859  17.952  29.2630  0.00  0.00     0.000 C
ATOM     28  C5  IDS B   2      35.489  17.334  30.6260  0.00  0.00     0.000 C
ATOM     29  O5  IDS B   2      34.228  16.684  30.5630  0.00  0.00     0.000 O
ATOM     30   O  IDS B   2      34.889  19.138  27.4450  0.00  0.00     0.000 O
ATOM     32  HD  IDS B   2      35.306  19.824  27.7700  0.00  0.00     0.000 HD
BRANCH 25 32
ATOM     32   O  IDS B   2      32.235  18.656  28.2970  0.00  0.00     0.000 O
ATOM     33   S  IDS B   2      31.452  20.080  28.0150  0.00  0.00     0.000 S
ATOM     34   O  IDS B   2      30.266  19.744  27.2420  0.00  0.00     0.000 OA
ATOM     35   O  IDS B   2      31.100  20.700  29.2850  0.00  0.00     0.000 OA
ATOM     36   O  IDS B   2      32.372  20.885  27.2450  0.00  0.00     0.000 OA
ENDBRANCH 25 32
BRANCH 28 37
ATOM     37   C  IDS B   2      36.500  16.368  31.2780  0.00  0.00     0.000 C
ATOM     38   O  IDS B   2      36.169  15.209  31.1810  0.00  0.00     0.000 OA
ATOM     39   O  IDS B   2      37.598  16.668  31.8070  0.00  0.00     0.000 OA
ENDBRANCH 28 37
BRANCH 24 40
ATOM     40  O4  SUS B   3      32.121  17.818  31.2640  0.00  0.00     0.000 O
BRANCH 40 44
ATOM     41  C1  SUS B   3      29.509  15.173  33.1950  0.00  0.00     0.000 C
ATOM     42  C2  SUS B   3      30.984  15.163  33.6460  0.00  0.00     0.000 C
ATOM     43  C3  SUS B   3      31.651  16.466  33.2110  0.00  0.00     0.000 C
ATOM     44  C4  SUS B   3      31.465  16.636  31.7110  0.00  0.00     0.000 C
ATOM     45  C5  SUS B   3      29.984  16.723  31.4080  0.00  0.00     0.000 C
ATOM     46  O5  SUS B   3      29.370  15.480  31.8030  0.00  0.00     0.000 O
BRANCH 42 49
ATOM     47   N  SUS B   3      30.874  13.746  34.0310  0.00  0.00     0.000 N
ATOM     49  HD  SUS B   3      30.074  13.416  34.0670  0.00  0.00     0.000 HD
ATOM     49   S  SUS B   3      31.609  13.422  35.4160  0.00  0.00     0.000 S
ATOM     50   O  SUS B   3      31.080  14.233  36.4410  0.00  0.00     0.000 OA
ATOM     51   O  SUS B   3      31.099  11.965  35.5550  0.00  0.00     0.000 OA
ATOM     52   O  SUS B   3      33.004  13.445  35.2210  0.00  0.00     0.000 OA
ENDBRANCH 42 49
BRANCH 43 53
ATOM     53   O  SUS B   3      33.089  16.369  33.5300  0.00  0.00     0.000 O
ATOM     54   S  SUS B   3      33.672  17.392  34.6770  0.00  0.00     0.000 S
ATOM     55   O  SUS B   3      33.150  16.950  35.9630  0.00  0.00     0.000 OA
ATOM     56   O  SUS B   3      35.114  17.269  34.5580  0.00  0.00     0.000 OA
ATOM     57   O  SUS B   3      33.176  18.727  34.3330  0.00  0.00     0.000 OA
ENDBRANCH 43 53
BRANCH 45 58
ATOM     58   C  SUS B   3      29.720  16.994  29.9430  0.00  0.00     0.000 C
ATOM     59   S  SUS B   3      29.219  15.821  27.7160  0.00  0.00     0.000 S
ATOM     60   O  SUS B   3      29.326  15.773  29.2960  0.00  0.00     0.000 O
ATOM     61   O  SUS B   3      30.587  15.747  27.2410  0.00  0.00     0.000 OA
ATOM     62   O  SUS B   3      28.476  14.616  27.4620  0.00  0.00     0.000 OA
ATOM     63   O  SUS B   3      28.537  17.030  27.4180  0.00  0.00     0.000 OA
ENDBRANCH 45 58
BRANCH 41 64
ATOM     64  O4  IDS B   4      28.683  15.900  34.0160  0.00  0.00     0.000 O
BRANCH 64 68
ATOM     65  C1  IDS B   4      25.577  15.594  35.8960  0.00  0.00     0.000 C
ATOM     66  C2  IDS B   4      26.232  14.352  35.2780  0.00  0.00     0.000 C
ATOM     67  C3  IDS B   4      26.679  14.529  33.8370  0.00  0.00     0.000 C
ATOM     68  C4  IDS B   4      27.307  15.885  33.5770  0.00  0.00     0.000 C
ATOM     69  C5  IDS B   4      26.438  16.952  34.2560  0.00  0.00     0.000 C
ATOM     70  O5  IDS B   4      26.414  16.713  35.6650  0.00  0.00     0.000 O
ATOM     71   O  IDS B   4      25.538  14.367  33.0200  0.00  0.00     0.000 O
ATOM     73  HD  IDS B   4      26.002  14.296  33.7480  0.00  0.00     0.000 HD
BRANCH 66 73
ATOM     73   O  IDS B   4      27.453  14.037  36.0310  0.00  0.00     0.000 O
ATOM     74   S  IDS B   4      27.469  12.685  36.9200  0.00  0.00     0.000 S
ATOM     75   O  IDS B   4      26.347  12.780  37.8300  0.00  0.00     0.000 OA
ATOM     76   O  IDS B   4      28.755  12.768  37.5630  0.00  0.00     0.000 OA
ATOM     77   O  IDS B   4      27.347  11.601  35.9740  0.00  0.00     0.000 OA
ENDBRANCH 66 73
BRANCH 69 78
ATOM     78   C  IDS B   4      26.811  18.386  33.9050  0.00  0.00     0.000 C
ATOM     79   O  IDS B   4      26.716  19.251  34.7740  0.00  0.00     0.000 OA
ATOM     80   O  IDS B   4      27.302  18.616  32.7840  0.00  0.00     0.000 OA
ENDBRANCH 69 78
BRANCH 65 81
ATOM     81  O4  SGN B   5      24.290  15.691  35.4610  0.00  0.00     0.000 O
BRANCH 81 85
ATOM     82  C1  SGN B   5      20.381  16.437  36.8030  0.00  0.00     0.000 C
ATOM     83  C2  SGN B   5      21.170  17.635  36.2530  0.00  0.00     0.000 C
ATOM     84  C3  SGN B   5      22.344  17.129  35.4040  0.00  0.00     0.000 C
ATOM     85  C4  SGN B   5      23.194  16.184  36.2350  0.00  0.00     0.000 C
ATOM     86  C5  SGN B   5      22.311  15.030  36.7020  0.00  0.00     0.000 C
ATOM     87  O5  SGN B   5      21.242  15.563  37.5070  0.00  0.00     0.000 O
ATOM     88   O  SGN B   5      23.108  18.222  34.9420  0.00  0.00     0.000 O
ATOM     90  HD  SGN B   5      22.532  17.779  34.4730  0.00  0.00     0.000 HD
BRANCH 83 92
ATOM     90   N  SGN B   5      20.300  18.531  37.0390  0.00  0.00     0.000 N
ATOM     92  HD  SGN B   5      20.639  18.687  37.8210  0.00  0.00     0.000 HD
ATOM     92   S  SGN B   5      19.677  19.807  36.3050  0.00  0.00     0.000 S
ATOM     93   O  SGN B   5      18.905  20.458  37.3200  0.00  0.00     0.000 OA
ATOM     94   O  SGN B   5      20.777  20.481  35.7030  0.00  0.00     0.000 OA
ATOM     95   O  SGN B   5      18.832  19.234  35.1880  0.00  0.00     0.000 OA
ENDBRANCH 83 92
BRANCH 86 96
ATOM     96   C  SGN B   5      23.033  13.995  37.5380  0.00  0.00     0.000 C
ATOM     97   O  SGN B   5      23.465  14.562  38.7770  0.00  0.00     0.000 O
ATOM     98   S  SGN B   5      23.071  13.750  40.1020  0.00  0.00     0.000 S
ATOM     99   O  SGN B   5      23.805  14.445  41.1320  0.00  0.00     0.000 OA
ATOM    100   O  SGN B   5      21.660  13.811  40.2360  0.00  0.00     0.000 OA
ATOM    101   O  SGN B   5      23.549  12.427  39.8620  0.00  0.00     0.000 OA
ENDBRANCH 86 96
BRANCH 82 102
ATOM    102  O4  IDS B   6      19.710  15.760  35.8280  0.00  0.00     0.000 O
BRANCH 102 106
ATOM    103  C1  IDS B   6      16.830  14.321  34.1290  0.00  0.00     0.000 C
ATOM    104  C2  IDS B   6      16.843  15.803  34.5340  0.00  0.00     0.000 C
ATOM    105  C3  IDS B   6      17.299  16.077  35.9540  0.00  0.00     0.000 C
ATOM    106  C4  IDS B   6      18.479  15.215  36.3680  0.00  0.00     0.000 C
ATOM    107  C5  IDS B   6      18.263  13.777  35.8880  0.00  0.00     0.000 C
ATOM    108  O5  IDS B   6      18.059  13.712  34.4760  0.00  0.00     0.000 O
ATOM    109   O  IDS B   6      16.195  15.868  36.8200  0.00  0.00     0.000 O
ATOM    111  HD  IDS B   6      15.676  15.338  36.3720  0.00  0.00     0.000 HD
BRANCH 104 111
ATOM    111   O  IDS B   6      17.793  16.526  33.6750  0.00  0.00     0.000 O
ATOM    112   S  IDS B   6      17.205  17.400  32.4700  0.00  0.00     0.000 S
ATOM    113   O  IDS B   6      16.456  16.451  31.6610  0.00  0.00     0.000 OA
ATOM    114   O  IDS B   6      16.401  18.490  33.0360  0.00  0.00     0.000 OA
ATOM    115   O  IDS B   6      18.447  17.835  31.8680  0.00  0.00     0.000 OA
ENDBRANCH 104 111
BRANCH 107 116
ATOM    116   C  IDS B   6      19.468  12.930  36.2760  0.00  0.00     0.000 C
ATOM    117   O  IDS B   6      20.160  12.527  35.3760  0.00  0.00     0.000 OA
ATOM    118   O  IDS B   6      19.711  12.667  37.4430  0.00  0.00     0.000 OA
ENDBRANCH 107 116
BRANCH 103 119
ATOM    119  O4  SGN B   7      15.651  13.863  34.6230  0.00  0.00     0.000 O
BRANCH 119 123
ATOM    120  C1  SGN B   7      12.974  10.781  33.7140  0.00  0.00     0.000 C
ATOM    121  C2  SGN B   7      14.242  10.414  34.5090  0.00  0.00     0.000 C
ATOM    122  C3  SGN B   7      14.891  11.673  35.0980  0.00  0.00     0.000 C
ATOM    123  C4  SGN B   7      15.128  12.692  33.9950  0.00  0.00     0.000 C
ATOM    124  C5  SGN B   7      13.810  12.985  33.2610  0.00  0.00     0.000 C
ATOM    125  O5  SGN B   7      13.235  11.773  32.7230  0.00  0.00     0.000 O
ATOM    126   O  SGN B   7      16.116  11.307  35.7430  0.00  0.00     0.000 O
ATOM    128  HD  SGN B   7      15.377  11.053  35.3690  0.00  0.00     0.000 HD
BRANCH 121 130
ATOM    128   N  SGN B   7      13.537   9.135  34.6280  0.00  0.00     0.000 N
ATOM    130  HD  SGN B   7      14.074   8.777  34.0500  0.00  0.00     0.000 HD
ATOM    130   S  SGN B   7      14.175   7.871  35.3940  0.00  0.00     0.000 S
ATOM    131   O  SGN B   7      14.599   8.375  36.6560  0.00  0.00     0.000 OA
ATOM    132   O  SGN B   7      13.253   6.795  35.3250  0.00  0.00     0.000 OA
ATOM    133   O  SGN B   7      15.314   7.480  34.3920  0.00  0.00     0.000 OA
ENDBRANCH 121 130
BRANCH 124 134
ATOM    134   C  SGN B   7      13.963  13.894  32.0780  0.00  0.00     0.000 C
ATOM    135   O  SGN B   7      13.550  13.185  30.8980  0.00  0.00     0.000 O
ATOM    136   S  SGN B   7      13.489  14.016  29.5660  0.00  0.00     0.000 S
ATOM    137   O  SGN B   7      13.157  13.080  28.5180  0.00  0.00     0.000 OA
ATOM    138   O  SGN B   7      14.809  14.586  29.4160  0.00  0.00     0.000 OA
ATOM    139   O  SGN B   7      12.442  14.985  29.8490  0.00  0.00     0.000 OA
ENDBRANCH 124 134
BRANCH 120 140
ATOM    140  O4  IDS B   8      11.816  11.258  34.1860  0.00  0.00     0.000 O
BRANCH 140 144
ATOM    141  C1  IDS B   8       8.560  12.619  34.8980  0.00  0.00     0.000 C
ATOM    142  C2  IDS B   8       9.826  13.522  34.9190  0.00  0.00     0.000 C
ATOM    143  C3  IDS B   8      10.985  12.918  35.7350  0.00  0.00     0.000 C
ATOM    144  C4  IDS B   8      11.169  11.428  35.4530  0.00  0.00     0.000 C
ATOM    145  C5  IDS B   8       9.807  10.717  35.4500  0.00  0.00     0.000 C
ATOM    146  O5  IDS B   8       8.912  11.298  34.5050  0.00  0.00     0.000 O
BRANCH 142 147
ATOM    147   O  IDS B   8      10.321  13.714  33.5300  0.00  0.00     0.000 O
ATOM    148   S  IDS B   8       9.991  15.072  32.7070  0.00  0.00     0.000 S
ATOM    149   O  IDS B   8       8.904  15.743  33.3840  0.00  0.00     0.000 OA
ATOM    150   O  IDS B   8      11.221  15.842  32.7200  0.00  0.00     0.000 OA
ATOM    151   O  IDS B   8       9.610  14.630  31.3790  0.00  0.00     0.000 OA
ENDBRANCH 142 147
BRANCH 145 152
ATOM    152   C  IDS B   8       9.915   9.252  35.0770  0.00  0.00     0.000 C
ATOM    153   O  IDS B   8       9.288   8.826  34.1140  0.00  0.00     0.000 OA
ATOM    154   O  IDS B   8      10.639   8.518  35.7260  0.00  0.00     0.000 OA
ENDBRANCH 145 152
ENDBRANCH 140 144
ENDBRANCH 120 140
ENDBRANCH 119 123
ENDBRANCH 103 119
ENDBRANCH 102 106
ENDBRANCH 82 102
ENDBRANCH 81 85
ENDBRANCH 65 81
ENDBRANCH 64 68
ENDBRANCH 41 64
ENDBRANCH 40 44
ENDBRANCH 24 40
ENDBRANCH 23 27
ENDBRANCH 1 23
TORSDOF 31
ENDMDL
MODEL 33
REMARK VINA RESULT:      -7.2      4.981      7.778
ROOT
ATOM      1  C1  SGN B   1      28.570  10.793  14.2840  0.00  0.00     0.000 C
ATOM      2  C2  SGN B   1      29.944  10.321  14.7860  0.00  0.00     0.000 C
ATOM      3  C3  SGN B   1      30.463   9.158  13.9340  0.00  0.00     0.000 C
ATOM      4  C4  SGN B   1      29.443   8.024  13.9130  0.00  0.00     0.000 C
ATOM      5  C5  SGN B   1      28.074   8.591  13.5440  0.00  0.00     0.000 C
ATOM      6  O5  SGN B   1      27.733   9.656  14.4520  0.00  0.00     0.000 O
ATOM      7   O  SGN B   1      31.714   8.695  14.4280  0.00  0.00     0.000 O
ATOM      9  HD  SGN B   1      31.194   8.553  15.1060  0.00  0.00     0.000 HD
ATOM      9   O  SGN B   1      29.841   7.051  12.9650  0.00  0.00     0.000 O
ATOM     11  HD  SGN B   1      29.320   6.909  13.6420  0.00  0.00     0.000 HD
ENDROOT
BRANCH 2 13
ATOM     11   N  SGN B   1      30.085  11.274  15.9030  0.00  0.00     0.000 N
ATOM     13  HD  SGN B   1      30.011  11.559  15.0890  0.00  0.00     0.000 HD
ATOM     13   S  SGN B   1      30.758  12.724  15.7160  0.00  0.00     0.000 S
ATOM     14   O  SGN B   1      31.114  12.923  14.3660  0.00  0.00     0.000 OA
ATOM     15   O  SGN B   1      29.941  13.687  16.3750  0.00  0.00     0.000 OA
ATOM     16   O  SGN B   1      32.018  12.502  16.6080  0.00  0.00     0.000 OA
ENDBRANCH 2 13
BRANCH 5 17
ATOM     17   C  SGN B   1      26.956   7.579  13.5970  0.00  0.00     0.000 C
ATOM     18   O  SGN B   1      26.009   7.803  12.5340  0.00  0.00     0.000 O
ATOM     19   S  SGN B   1      24.465   7.747  12.9470  0.00  0.00     0.000 S
ATOM     20   O  SGN B   1      23.741   7.762  11.6940  0.00  0.00     0.000 OA
ATOM     21   O  SGN B   1      24.339   6.504  13.6720  0.00  0.00     0.000 OA
ATOM     22   O  SGN B   1      24.248   8.925  13.7570  0.00  0.00     0.000 OA
ENDBRANCH 5 17
BRANCH 1 23
ATOM     23  O4  IDS B   2      28.015  11.676  13.4050  0.00  0.00     0.000 O
BRANCH 23 27
ATOM     24  C1  IDS B   2      25.628  14.875  14.5440  0.00  0.00     0.000 C
ATOM     25  C2  IDS B   2      25.011  13.474  14.7540  0.00  0.00     0.000 C
ATOM     26  C3  IDS B   2      26.065  12.383  14.5880  0.00  0.00     0.000 C
ATOM     27  C4  IDS B   2      26.807  12.451  13.2600  0.00  0.00     0.000 C
ATOM     28  C5  IDS B   2      27.038  13.923  12.8610  0.00  0.00     0.000 C
ATOM     29  O5  IDS B   2      26.947  14.776  13.9920  0.00  0.00     0.000 O
ATOM     30   O  IDS B   2      25.437  11.109  14.6640  0.00  0.00     0.000 O
ATOM     32  HD  IDS B   2      25.041  10.879  13.9290  0.00  0.00     0.000 HD
BRANCH 25 32
ATOM     32   O  IDS B   2      24.414  13.320  16.1030  0.00  0.00     0.000 O
ATOM     33   S  IDS B   2      22.945  12.604  16.3300  0.00  0.00     0.000 S
ATOM     34   O  IDS B   2      22.593  12.834  17.7220  0.00  0.00     0.000 OA
ATOM     35   O  IDS B   2      21.970  13.204  15.4290  0.00  0.00     0.000 OA
ATOM     36   O  IDS B   2      23.150  11.199  16.0630  0.00  0.00     0.000 OA
ENDBRANCH 25 32
BRANCH 28 37
ATOM     37   C  IDS B   2      28.333  14.267  12.0960  0.00  0.00     0.000 C
ATOM     38   O  IDS B   2      28.296  13.925  10.9370  0.00  0.00     0.000 OA
ATOM     39   O  IDS B   2      29.328  14.892  12.5380  0.00  0.00     0.000 OA
ENDBRANCH 28 37
BRANCH 24 40
ATOM     40  O4  SUS B   3      24.840  15.969  14.5820  0.00  0.00     0.000 O
BRANCH 40 44
ATOM     41  C1  SUS B   3      25.730  19.768  16.1070  0.00  0.00     0.000 C
ATOM     42  C2  SUS B   3      25.847  19.575  14.5820  0.00  0.00     0.000 C
ATOM     43  C3  SUS B   3      25.049  18.341  14.1680  0.00  0.00     0.000 C
ATOM     44  C4  SUS B   3      25.530  17.149  14.9800  0.00  0.00     0.000 C
ATOM     45  C5  SUS B   3      25.278  17.422  16.4490  0.00  0.00     0.000 C
ATOM     46  O5  SUS B   3      26.054  18.576  16.8310  0.00  0.00     0.000 O
BRANCH 42 49
ATOM     47   N  SUS B   3      26.191  20.072  13.2380  0.00  0.00     0.000 N
ATOM     49  HD  SUS B   3      26.759  19.600  12.7850  0.00  0.00     0.000 HD
ATOM     49   S  SUS B   3      26.704  21.589  13.2530  0.00  0.00     0.000 S
ATOM     50   O  SUS B   3      27.822  21.710  14.1040  0.00  0.00     0.000 OA
ATOM     51   O  SUS B   3      27.140  21.646  11.7670  0.00  0.00     0.000 OA
ATOM     52   O  SUS B   3      25.612  22.449  13.4850  0.00  0.00     0.000 OA
ENDBRANCH 42 49
BRANCH 43 53
ATOM     53   O  SUS B   3      25.293  18.101  12.7320  0.00  0.00     0.000 O
ATOM     54   S  SUS B   3      23.990  18.149  11.7320  0.00  0.00     0.000 S
ATOM     55   O  SUS B   3      23.564  19.538  11.6350  0.00  0.00     0.000 OA
ATOM     56   O  SUS B   3      24.485  17.599  10.4820  0.00  0.00     0.000 OA
ATOM     57   O  SUS B   3      22.956  17.319  12.3580  0.00  0.00     0.000 OA
ENDBRANCH 43 53
BRANCH 45 58
ATOM     58   C  SUS B   3      25.640  16.237  17.3160  0.00  0.00     0.000 C
ATOM     59   S  SUS B   3      24.942  14.989  19.4480  0.00  0.00     0.000 S
ATOM     60   O  SUS B   3      24.624  16.050  18.3160  0.00  0.00     0.000 O
ATOM     61   O  SUS B   3      25.850  15.664  20.3560  0.00  0.00     0.000 OA
ATOM     62   O  SUS B   3      23.633  14.798  20.0110  0.00  0.00     0.000 OA
ATOM     63   O  SUS B   3      25.484  13.864  18.7720  0.00  0.00     0.000 OA
ENDBRANCH 45 58
BRANCH 41 64
ATOM     64  O4  IDS B   4      24.557  20.364  16.5010  0.00  0.00     0.000 O
BRANCH 64 68
ATOM     65  C1  IDS B   4      22.142  22.317  18.4050  0.00  0.00     0.000 C
ATOM     66  C2  IDS B   4      23.129  23.016  17.4620  0.00  0.00     0.000 C
ATOM     67  C3  IDS B   4      24.566  22.540  17.5920  0.00  0.00     0.000 C
ATOM     68  C4  IDS B   4      24.676  21.038  17.7730  0.00  0.00     0.000 C
ATOM     69  C5  IDS B   4      23.618  20.602  18.7960  0.00  0.00     0.000 C
ATOM     70  O5  IDS B   4      22.318  20.916  18.2920  0.00  0.00     0.000 O
ATOM     71   O  IDS B   4      25.126  23.198  18.7100  0.00  0.00     0.000 O
ATOM     73  HD  IDS B   4      24.549  23.076  18.0760  0.00  0.00     0.000 HD
BRANCH 66 73
ATOM     73   O  IDS B   4      22.744  22.725  16.0740  0.00  0.00     0.000 O
ATOM     74   S  IDS B   4      22.156  23.938  15.1790  0.00  0.00     0.000 S
ATOM     75   O  IDS B   4      21.016  24.462  15.9000  0.00  0.00     0.000 OA
ATOM     76   O  IDS B   4      21.816  23.262  13.9520  0.00  0.00     0.000 OA
ATOM     77   O  IDS B   4      23.238  24.885  15.0550  0.00  0.00     0.000 OA
ENDBRANCH 66 73
BRANCH 69 78
ATOM     78   C  IDS B   4      23.743  19.155  19.2530  0.00  0.00     0.000 C
ATOM     79   O  IDS B   4      24.776  18.802  19.8210  0.00  0.00     0.000 OA
ATOM     80   O  IDS B   4      22.757  18.405  19.1320  0.00  0.00     0.000 OA
ENDBRANCH 69 78
BRANCH 65 81
ATOM     81  O4  SGN B   5      22.252  22.850  19.6530  0.00  0.00     0.000 O
BRANCH 81 85
ATOM     82  C1  SGN B   5      20.252  22.531  23.3320  0.00  0.00     0.000 C
ATOM     83  C2  SGN B   5      19.881  21.510  22.2460  0.00  0.00     0.000 C
ATOM     84  C3  SGN B   5      20.989  21.466  21.1840  0.00  0.00     0.000 C
ATOM     85  C4  SGN B   5      21.216  22.864  20.6380  0.00  0.00     0.000 C
ATOM     86  C5  SGN B   5      21.599  23.777  21.8000  0.00  0.00     0.000 C
ATOM     87  O5  SGN B   5      20.516  23.793  22.7500  0.00  0.00     0.000 O
ATOM     88   O  SGN B   5      20.629  20.572  20.1530  0.00  0.00     0.000 O
ATOM     90  HD  SGN B   5      21.188  20.402  20.7930  0.00  0.00     0.000 HD
BRANCH 83 92
ATOM     90   N  SGN B   5      19.427  20.659  23.3630  0.00  0.00     0.000 N
ATOM     92  HD  SGN B   5      19.490  21.078  24.1180  0.00  0.00     0.000 HD
ATOM     92   S  SGN B   5      18.082  19.817  23.1670  0.00  0.00     0.000 S
ATOM     93   O  SGN B   5      17.918  19.119  24.4060  0.00  0.00     0.000 OA
ATOM     94   O  SGN B   5      17.100  20.753  22.7400  0.00  0.00     0.000 OA
ATOM     95   O  SGN B   5      18.370  18.900  21.9980  0.00  0.00     0.000 OA
ENDBRANCH 83 92
BRANCH 86 96
ATOM     96   C  SGN B   5      21.869  25.213  21.3990  0.00  0.00     0.000 C
ATOM     97   O  SGN B   5      23.019  25.716  22.0810  0.00  0.00     0.000 O
ATOM     98   S  SGN B   5      24.137  26.410  21.1630  0.00  0.00     0.000 S
ATOM     99   O  SGN B   5      25.038  26.980  22.1360  0.00  0.00     0.000 OA
ATOM    100   O  SGN B   5      24.707  25.399  20.3480  0.00  0.00     0.000 OA
ATOM    101   O  SGN B   5      23.421  27.391  20.4130  0.00  0.00     0.000 OA
ENDBRANCH 86 96
BRANCH 82 102
ATOM    102  O4  IDS B   6      21.310  22.127  24.0920  0.00  0.00     0.000 O
BRANCH 102 106
ATOM    103  C1  IDS B   6      22.971  21.021  27.1370  0.00  0.00     0.000 C
ATOM    104  C2  IDS B   6      21.647  20.383  26.6880  0.00  0.00     0.000 C
ATOM    105  C3  IDS B   6      20.565  21.365  26.2820  0.00  0.00     0.000 C
ATOM    106  C4  IDS B   6      21.105  22.530  25.4700  0.00  0.00     0.000 C
ATOM    107  C5  IDS B   6      22.413  23.031  26.0910  0.00  0.00     0.000 C
ATOM    108  O5  IDS B   6      23.386  21.990  26.1940  0.00  0.00     0.000 O
ATOM    109   O  IDS B   6      19.923  21.827  27.4590  0.00  0.00     0.000 O
ATOM    111  HD  IDS B   6      20.511  21.696  28.0820  0.00  0.00     0.000 HD
BRANCH 104 111
ATOM    111   O  IDS B   6      21.892  19.560  25.4940  0.00  0.00     0.000 O
ATOM    112   S  IDS B   6      21.746  17.972  25.6310  0.00  0.00     0.000 S
ATOM    113   O  IDS B   6      22.698  17.604  26.6670  0.00  0.00     0.000 OA
ATOM    114   O  IDS B   6      20.347  17.660  25.9450  0.00  0.00     0.000 OA
ATOM    115   O  IDS B   6      22.151  17.584  24.2970  0.00  0.00     0.000 OA
ENDBRANCH 104 111
BRANCH 107 116
ATOM    116   C  IDS B   6      22.965  24.174  25.2490  0.00  0.00     0.000 C
ATOM    117   O  IDS B   6      22.312  25.186  25.2160  0.00  0.00     0.000 OA
ATOM    118   O  IDS B   6      24.013  24.061  24.6330  0.00  0.00     0.000 OA
ENDBRANCH 107 116
BRANCH 103 119
ATOM    119  O4  SGN B   7      22.745  21.349  28.4350  0.00  0.00     0.000 O
BRANCH 119 123
ATOM    120  C1  SGN B   7      25.257  21.991  31.7170  0.00  0.00     0.000 C
ATOM    121  C2  SGN B   7      24.570  23.221  31.0930  0.00  0.00     0.000 C
ATOM    122  C3  SGN B   7      23.404  22.787  30.1950  0.00  0.00     0.000 C
ATOM    123  C4  SGN B   7      23.891  21.771  29.1750  0.00  0.00     0.000 C
ATOM    124  C5  SGN B   7      24.564  20.591  29.8950  0.00  0.00     0.000 C
ATOM    125  O5  SGN B   7      25.656  21.044  30.7270  0.00  0.00     0.000 O
ATOM    126   O  SGN B   7      22.853  23.945  29.5560  0.00  0.00     0.000 O
ATOM    128  HD  SGN B   7      23.387  23.620  30.1560  0.00  0.00     0.000 HD
BRANCH 121 130
ATOM    128   N  SGN B   7      25.402  24.004  32.0090  0.00  0.00     0.000 N
ATOM    130  HD  SGN B   7      25.594  24.559  31.3720  0.00  0.00     0.000 HD
ATOM    130   S  SGN B   7      24.943  25.442  32.5700  0.00  0.00     0.000 S
ATOM    131   O  SGN B   7      23.626  25.243  33.0710  0.00  0.00     0.000 OA
ATOM    132   O  SGN B   7      25.966  25.937  33.4200  0.00  0.00     0.000 OA
ATOM    133   O  SGN B   7      25.060  26.303  31.2670  0.00  0.00     0.000 OA
ENDBRANCH 121 130
BRANCH 124 134
ATOM    134   C  SGN B   7      25.182  19.587  28.9670  0.00  0.00     0.000 C
ATOM    135   O  SGN B   7      26.089  18.764  29.7200  0.00  0.00     0.000 O
ATOM    136   S  SGN B   7      26.727  17.547  28.9590  0.00  0.00     0.000 S
ATOM    137   O  SGN B   7      27.667  16.944  29.8730  0.00  0.00     0.000 OA
ATOM    138   O  SGN B   7      27.361  18.120  27.7940  0.00  0.00     0.000 OA
ATOM    139   O  SGN B   7      25.568  16.718  28.6680  0.00  0.00     0.000 OA
ENDBRANCH 124 134
BRANCH 120 140
ATOM    140  O4  IDS B   8      24.762  21.145  32.6270  0.00  0.00     0.000 O
BRANCH 140 144
ATOM    141  C1  IDS B   8      24.358  18.719  35.2550  0.00  0.00     0.000 C
ATOM    142  C2  IDS B   8      23.433  18.705  34.0060  0.00  0.00     0.000 C
ATOM    143  C3  IDS B   8      22.851  20.091  33.6700  0.00  0.00     0.000 C
ATOM    144  C4  IDS B   8      23.903  21.194  33.7740  0.00  0.00     0.000 C
ATOM    145  C5  IDS B   8      24.728  21.020  35.0580  0.00  0.00     0.000 C
ATOM    146  O5  IDS B   8      25.343  19.736  35.1200  0.00  0.00     0.000 O
BRANCH 142 147
ATOM    147   O  IDS B   8      24.208  18.254  32.8200  0.00  0.00     0.000 O
ATOM    148   S  IDS B   8      23.761  16.941  31.9790  0.00  0.00     0.000 S
ATOM    149   O  IDS B   8      22.838  16.189  32.7980  0.00  0.00     0.000 OA
ATOM    150   O  IDS B   8      23.150  17.448  30.7650  0.00  0.00     0.000 OA
ATOM    151   O  IDS B   8      24.989  16.208  31.7350  0.00  0.00     0.000 OA
ENDBRANCH 142 147
BRANCH 145 152
ATOM    152   C  IDS B   8      25.854  22.028  35.1680  0.00  0.00     0.000 C
ATOM    153   O  IDS B   8      25.592  23.224  35.2240  0.00  0.00     0.000 OA
ATOM    154   O  IDS B   8      27.007  21.638  35.2210  0.00  0.00     0.000 OA
ENDBRANCH 145 152
ENDBRANCH 140 144
ENDBRANCH 120 140
ENDBRANCH 119 123
ENDBRANCH 103 119
ENDBRANCH 102 106
ENDBRANCH 82 102
ENDBRANCH 81 85
ENDBRANCH 65 81
ENDBRANCH 64 68
ENDBRANCH 41 64
ENDBRANCH 40 44
ENDBRANCH 24 40
ENDBRANCH 23 27
ENDBRANCH 1 23
TORSDOF 31
ENDMDL
MODEL 34
REMARK VINA RESULT:      -7.2      2.916      4.955
ROOT
ATOM      1  C1  SGN B   1      28.848  10.804  14.1770  0.00  0.00     0.000 C
ATOM      2  C2  SGN B   1      30.262  10.276  14.4680  0.00  0.00     0.000 C
ATOM      3  C3  SGN B   1      30.611   9.116  13.5290  0.00  0.00     0.000 C
ATOM      4  C4  SGN B   1      29.558   8.017  13.6350  0.00  0.00     0.000 C
ATOM      5  C5  SGN B   1      28.172   8.638  13.4770  0.00  0.00     0.000 C
ATOM      6  O5  SGN B   1      28.004   9.693  14.4440  0.00  0.00     0.000 O
ATOM      7   O  SGN B   1      31.902   8.600  13.8300  0.00  0.00     0.000 O
ATOM      9  HD  SGN B   1      31.480   8.460  14.5730  0.00  0.00     0.000 HD
ATOM      9   O  SGN B   1      29.780   7.053  12.6220  0.00  0.00     0.000 O
ATOM     11  HD  SGN B   1      29.357   6.914  13.3650  0.00  0.00     0.000 HD
ENDROOT
BRANCH 2 13
ATOM     11   N  SGN B   1      30.496  11.716  14.2500  0.00  0.00     0.000 N
ATOM     13  HD  SGN B   1      31.048  11.247  14.7260  0.00  0.00     0.000 HD
ATOM     13   S  SGN B   1      31.287  12.628  15.3130  0.00  0.00     0.000 S
ATOM     14   O  SGN B   1      31.733  11.838  16.3940  0.00  0.00     0.000 OA
ATOM     15   O  SGN B   1      32.222  13.437  14.6050  0.00  0.00     0.000 OA
ATOM     16   O  SGN B   1      30.105  13.553  15.7370  0.00  0.00     0.000 OA
ENDBRANCH 2 13
BRANCH 5 17
ATOM     17   C  SGN B   1      27.037   7.663  13.6730  0.00  0.00     0.000 C
ATOM     18   O  SGN B   1      26.154   7.666  12.5330  0.00  0.00     0.000 O
ATOM     19   S  SGN B   1      24.589   7.702  12.8590  0.00  0.00     0.000 S
ATOM     20   O  SGN B   1      23.936   7.461  11.5890  0.00  0.00     0.000 OA
ATOM     21   O  SGN B   1      24.403   6.636  13.8160  0.00  0.00     0.000 OA
ATOM     22   O  SGN B   1      24.345   9.023  13.3950  0.00  0.00     0.000 OA
ENDBRANCH 5 17
BRANCH 1 23
ATOM     23  O4  IDS B   2      28.206  11.725  13.4030  0.00  0.00     0.000 O
BRANCH 23 27
ATOM     24  C1  IDS B   2      25.962  14.696  15.2390  0.00  0.00     0.000 C
ATOM     25  C2  IDS B   2      25.297  13.303  15.1720  0.00  0.00     0.000 C
ATOM     26  C3  IDS B   2      26.307  12.236  14.7580  0.00  0.00     0.000 C
ATOM     27  C4  IDS B   2      27.025  12.553  13.4530  0.00  0.00     0.000 C
ATOM     28  C5  IDS B   2      27.303  14.067  13.3590  0.00  0.00     0.000 C
ATOM     29  O5  IDS B   2      27.266  14.670  14.6430  0.00  0.00     0.000 O
ATOM     30   O  IDS B   2      25.633  10.995  14.5860  0.00  0.00     0.000 O
ATOM     32  HD  IDS B   2      25.214  10.935  13.8300  0.00  0.00     0.000 HD
BRANCH 25 32
ATOM     32   O  IDS B   2      24.721  12.893  16.4760  0.00  0.00     0.000 O
ATOM     33   S  IDS B   2      23.225  12.206  16.5910  0.00  0.00     0.000 S
ATOM     34   O  IDS B   2      22.912  12.151  18.0100  0.00  0.00     0.000 OA
ATOM     35   O  IDS B   2      22.261  13.020  15.8640  0.00  0.00     0.000 OA
ATOM     36   O  IDS B   2      23.361  10.881  16.0300  0.00  0.00     0.000 OA
ENDBRANCH 25 32
BRANCH 28 37
ATOM     37   C  IDS B   2      28.595  14.520  12.6470  0.00  0.00     0.000 C
ATOM     38   O  IDS B   2      28.669  14.114  11.5110  0.00  0.00     0.000 OA
ATOM     39   O  IDS B   2      29.482  15.280  13.1050  0.00  0.00     0.000 OA
ENDBRANCH 28 37
BRANCH 24 40
ATOM     40  O4  SUS B   3      25.216  15.784  15.5220  0.00  0.00     0.000 O
BRANCH 40 44
ATOM     41  C1  SUS B   3      26.236  19.314  17.5330  0.00  0.00     0.000 C
ATOM     42  C2  SUS B   3      26.711  19.172  16.0730  0.00  0.00     0.000 C
ATOM     43  C3  SUS B   3      25.872  18.105  15.3730  0.00  0.00     0.000 C
ATOM     44  C4  SUS B   3      25.947  16.816  16.1760  0.00  0.00     0.000 C
ATOM     45  C5  SUS B   3      25.371  17.062  17.5550  0.00  0.00     0.000 C
ATOM     46  O5  SUS B   3      26.184  18.054  18.2120  0.00  0.00     0.000 O
BRANCH 42 49
ATOM     47   N  SUS B   3      27.884  20.021  16.3430  0.00  0.00     0.000 N
ATOM     49  HD  SUS B   3      27.887  20.449  17.0960  0.00  0.00     0.000 HD
ATOM     49   S  SUS B   3      28.167  21.076  15.1710  0.00  0.00     0.000 S
ATOM     50   O  SUS B   3      27.031  21.887  14.9710  0.00  0.00     0.000 OA
ATOM     51   O  SUS B   3      29.280  21.866  15.9050  0.00  0.00     0.000 OA
ATOM     52   O  SUS B   3      28.691  20.400  14.0520  0.00  0.00     0.000 OA
ENDBRANCH 42 49
BRANCH 43 53
ATOM     53   O  SUS B   3      26.438  17.893  14.0270  0.00  0.00     0.000 O
ATOM     54   S  SUS B   3      25.504  18.324  12.7450  0.00  0.00     0.000 S
ATOM     55   O  SUS B   3      25.450  19.779  12.7130  0.00  0.00     0.000 OA
ATOM     56   O  SUS B   3      26.183  17.738  11.6030  0.00  0.00     0.000 OA
ATOM     57   O  SUS B   3      24.177  17.749  12.9860  0.00  0.00     0.000 OA
ENDBRANCH 43 53
BRANCH 45 58
ATOM     58   C  SUS B   3      25.319  15.796  18.3820  0.00  0.00     0.000 C
ATOM     59   S  SUS B   3      24.396  14.837  20.5750  0.00  0.00     0.000 S
ATOM     60   O  SUS B   3      24.412  15.982  19.4810  0.00  0.00     0.000 O
ATOM     61   O  SUS B   3      25.578  15.067  21.3830  0.00  0.00     0.000 OA
ATOM     62   O  SUS B   3      23.177  15.150  21.2720  0.00  0.00     0.000 OA
ATOM     63   O  SUS B   3      24.384  13.617  19.8490  0.00  0.00     0.000 OA
ENDBRANCH 45 58
BRANCH 41 64
ATOM     64  O4  IDS B   4      25.103  20.076  17.6760  0.00  0.00     0.000 O
BRANCH 64 68
ATOM     65  C1  IDS B   4      23.375  22.569  19.6950  0.00  0.00     0.000 C
ATOM     66  C2  IDS B   4      24.885  22.353  19.8600  0.00  0.00     0.000 C
ATOM     67  C3  IDS B   4      25.303  20.896  19.9600  0.00  0.00     0.000 C
ATOM     68  C4  IDS B   4      24.541  19.997  19.0050  0.00  0.00     0.000 C
ATOM     69  C5  IDS B   4      23.058  20.384  19.0650  0.00  0.00     0.000 C
ATOM     70  O5  IDS B   4      22.908  21.742  18.6440  0.00  0.00     0.000 O
ATOM     71   O  IDS B   4      25.071  20.484  21.2910  0.00  0.00     0.000 O
ATOM     73  HD  IDS B   4      25.185  21.058  20.6530  0.00  0.00     0.000 HD
BRANCH 66 73
ATOM     73   O  IDS B   4      25.571  22.876  18.6700  0.00  0.00     0.000 O
ATOM     74   S  IDS B   4      26.597  24.111  18.8670  0.00  0.00     0.000 S
ATOM     75   O  IDS B   4      25.844  25.172  19.5000  0.00  0.00     0.000 OA
ATOM     76   O  IDS B   4      26.984  24.395  17.5080  0.00  0.00     0.000 OA
ATOM     77   O  IDS B   4      27.664  23.597  19.6930  0.00  0.00     0.000 OA
ENDBRANCH 66 73
BRANCH 69 78
ATOM     78   C  IDS B   4      22.128  19.430  18.3280  0.00  0.00     0.000 C
ATOM     79   O  IDS B   4      22.473  18.258  18.1890  0.00  0.00     0.000 OA
ATOM     80   O  IDS B   4      21.004  19.840  17.9850  0.00  0.00     0.000 OA
ENDBRANCH 69 78
BRANCH 65 81
ATOM     81  O4  SGN B   5      22.763  22.431  20.9030  0.00  0.00     0.000 O
BRANCH 81 85
ATOM     82  C1  SGN B   5      18.906  23.275  22.3350  0.00  0.00     0.000 C
ATOM     83  C2  SGN B   5      19.203  23.640  20.8730  0.00  0.00     0.000 C
ATOM     84  C3  SGN B   5      20.439  22.867  20.3910  0.00  0.00     0.000 C
ATOM     85  C4  SGN B   5      21.602  23.149  21.3260  0.00  0.00     0.000 C
ATOM     86  C5  SGN B   5      21.198  22.726  22.7360  0.00  0.00     0.000 C
ATOM     87  O5  SGN B   5      20.050  23.497  23.1380  0.00  0.00     0.000 O
ATOM     88   O  SGN B   5      20.752  23.240  19.0670  0.00  0.00     0.000 O
ATOM     90  HD  SGN B   5      20.344  22.512  19.3010  0.00  0.00     0.000 HD
BRANCH 83 92
ATOM     90   N  SGN B   5      17.821  24.131  21.0360  0.00  0.00     0.000 N
ATOM     92  HD  SGN B   5      17.752  24.641  21.7330  0.00  0.00     0.000 HD
ATOM     92   S  SGN B   5      17.052  24.655  19.7360  0.00  0.00     0.000 S
ATOM     93   O  SGN B   5      15.767  25.058  20.2230  0.00  0.00     0.000 OA
ATOM     94   O  SGN B   5      17.918  25.609  19.1330  0.00  0.00     0.000 OA
ATOM     95   O  SGN B   5      16.991  23.455  18.8160  0.00  0.00     0.000 OA
ENDBRANCH 83 92
BRANCH 86 96
ATOM     96   C  SGN B   5      22.274  22.940  23.7800  0.00  0.00     0.000 C
ATOM     97   O  SGN B   5      23.523  23.253  23.1580  0.00  0.00     0.000 O
ATOM     98   S  SGN B   5      24.278  24.557  23.7070  0.00  0.00     0.000 S
ATOM     99   O  SGN B   5      25.558  24.485  23.0460  0.00  0.00     0.000 OA
ATOM    100   O  SGN B   5      23.492  25.685  23.3560  0.00  0.00     0.000 OA
ATOM    101   O  SGN B   5      24.358  24.352  25.1170  0.00  0.00     0.000 OA
ENDBRANCH 86 96
BRANCH 82 102
ATOM    102  O4  IDS B   6      18.468  21.992  22.4770  0.00  0.00     0.000 O
BRANCH 102 106
ATOM    103  C1  IDS B   6      16.046  19.418  23.3500  0.00  0.00     0.000 C
ATOM    104  C2  IDS B   6      15.618  20.664  22.5590  0.00  0.00     0.000 C
ATOM    105  C3  IDS B   6      16.119  21.982  23.1170  0.00  0.00     0.000 C
ATOM    106  C4  IDS B   6      17.556  21.906  23.6010  0.00  0.00     0.000 C
ATOM    107  C5  IDS B   6      17.771  20.604  24.3790  0.00  0.00     0.000 C
ATOM    108  O5  IDS B   6      17.438  19.455  23.5980  0.00  0.00     0.000 O
ATOM    109   O  IDS B   6      15.253  22.374  24.1690  0.00  0.00     0.000 O
ATOM    111  HD  IDS B   6      14.890  21.632  24.4280  0.00  0.00     0.000 HD
BRANCH 104 111
ATOM    111   O  IDS B   6      16.171  20.582  21.1990  0.00  0.00     0.000 O
ATOM    112   S  IDS B   6      15.147  20.435  19.9770  0.00  0.00     0.000 S
ATOM    113   O  IDS B   6      14.406  19.217  20.2650  0.00  0.00     0.000 OA
ATOM    114   O  IDS B   6      14.326  21.650  19.9100  0.00  0.00     0.000 OA
ATOM    115   O  IDS B   6      16.095  20.304  18.8920  0.00  0.00     0.000 OA
ENDBRANCH 104 111
BRANCH 107 116
ATOM    116   C  IDS B   6      19.224  20.520  24.8280  0.00  0.00     0.000 C
ATOM    117   O  IDS B   6      19.892  19.642  24.3430  0.00  0.00     0.000 OA
ATOM    118   O  IDS B   6      19.682  21.301  25.6480  0.00  0.00     0.000 OA
ENDBRANCH 107 116
BRANCH 103 119
ATOM    119  O4  SGN B   7      15.148  19.359  24.3670  0.00  0.00     0.000 O
BRANCH 119 123
ATOM    120  C1  SGN B   7      13.145  16.356  26.4790  0.00  0.00     0.000 C
ATOM    121  C2  SGN B   7      14.632  16.588  26.8070  0.00  0.00     0.000 C
ATOM    122  C3  SGN B   7      15.097  17.946  26.2650  0.00  0.00     0.000 C
ATOM    123  C4  SGN B   7      14.770  18.046  24.7840  0.00  0.00     0.000 C
ATOM    124  C5  SGN B   7      13.270  17.794  24.5610  0.00  0.00     0.000 C
ATOM    125  O5  SGN B   7      12.877  16.505  25.0860  0.00  0.00     0.000 O
ATOM    126   O  SGN B   7      16.503  18.085  26.4990  0.00  0.00     0.000 O
ATOM    128  HD  SGN B   7      15.773  17.642  26.6450  0.00  0.00     0.000 HD
BRANCH 121 130
ATOM    128   N  SGN B   7      14.731  16.446  28.2620  0.00  0.00     0.000 N
ATOM    130  HD  SGN B   7      14.120  15.833  28.2510  0.00  0.00     0.000 HD
ATOM    130   S  SGN B   7      15.424  15.169  28.9560  0.00  0.00     0.000 S
ATOM    131   O  SGN B   7      16.686  15.034  28.3110  0.00  0.00     0.000 OA
ATOM    132   O  SGN B   7      15.352  15.331  30.3630  0.00  0.00     0.000 OA
ATOM    133   O  SGN B   7      14.364  14.063  28.6300  0.00  0.00     0.000 OA
ENDBRANCH 121 130
BRANCH 124 134
ATOM    134   C  SGN B   7      12.868  17.757  23.1160  0.00  0.00     0.000 C
ATOM    135   O  SGN B   7      11.784  16.825  22.9660  0.00  0.00     0.000 O
ATOM    136   S  SGN B   7      11.114  16.754  21.5470  0.00  0.00     0.000 S
ATOM    137   O  SGN B   7      10.139  15.691  21.6100  0.00  0.00     0.000 OA
ATOM    138   O  SGN B   7      12.196  16.473  20.6310  0.00  0.00     0.000 OA
ATOM    139   O  SGN B   7      10.536  18.081  21.4070  0.00  0.00     0.000 OA
ENDBRANCH 124 134
BRANCH 120 140
ATOM    140  O4  IDS B   8      12.083  17.008  26.9670  0.00  0.00     0.000 O
BRANCH 140 144
ATOM    141  C1  IDS B   8       9.998  19.109  29.0150  0.00  0.00     0.000 C
ATOM    142  C2  IDS B   8      11.072  18.183  29.6530  0.00  0.00     0.000 C
ATOM    143  C3  IDS B   8      11.017  16.739  29.1210  0.00  0.00     0.000 C
ATOM    144  C4  IDS B   8      10.839  16.694  27.6040  0.00  0.00     0.000 C
ATOM    145  C5  IDS B   8       9.756  17.693  27.1690  0.00  0.00     0.000 C
ATOM    146  O5  IDS B   8      10.058  19.018  27.5970  0.00  0.00     0.000 O
BRANCH 142 147
ATOM    147   O  IDS B   8      12.427  18.713  29.3490  0.00  0.00     0.000 O
ATOM    148   S  IDS B   8      13.351  19.363  30.5130  0.00  0.00     0.000 S
ATOM    149   O  IDS B   8      12.495  19.656  31.6400  0.00  0.00     0.000 OA
ATOM    150   O  IDS B   8      14.355  18.360  30.8160  0.00  0.00     0.000 OA
ATOM    151   O  IDS B   8      13.909  20.568  29.9290  0.00  0.00     0.000 OA
ENDBRANCH 142 147
BRANCH 145 152
ATOM    152   C  IDS B   8       9.602  17.766  25.6630  0.00  0.00     0.000 C
ATOM    153   O  IDS B   8       9.877  18.807  25.0770  0.00  0.00     0.000 OA
ATOM    154   O  IDS B   8       9.227  16.784  25.0480  0.00  0.00     0.000 OA
ENDBRANCH 145 152
ENDBRANCH 140 144
ENDBRANCH 120 140
ENDBRANCH 119 123
ENDBRANCH 103 119
ENDBRANCH 102 106
ENDBRANCH 82 102
ENDBRANCH 81 85
ENDBRANCH 65 81
ENDBRANCH 64 68
ENDBRANCH 41 64
ENDBRANCH 40 44
ENDBRANCH 24 40
ENDBRANCH 23 27
ENDBRANCH 1 23
TORSDOF 31
ENDMDL
MODEL 35
REMARK VINA RESULT:      -7.1      5.258      8.733
ROOT
ATOM      1  C1  SGN B   1      25.806  17.120  13.9470  0.00  0.00     0.000 C
ATOM      2  C2  SGN B   1      24.757  17.455  12.8740  0.00  0.00     0.000 C
ATOM      3  C3  SGN B   1      23.529  16.548  13.0130  0.00  0.00     0.000 C
ATOM      4  C4  SGN B   1      23.949  15.083  12.9620  0.00  0.00     0.000 C
ATOM      5  C5  SGN B   1      25.089  14.855  13.9520  0.00  0.00     0.000 C
ATOM      6  O5  SGN B   1      26.163  15.772  13.6690  0.00  0.00     0.000 O
ATOM      7   O  SGN B   1      22.580  16.831  11.9920  0.00  0.00     0.000 O
ATOM      9  HD  SGN B   1      23.268  16.582  11.5290  0.00  0.00     0.000 HD
ATOM      9   O  SGN B   1      22.843  14.264  13.2950  0.00  0.00     0.000 O
ATOM     11  HD  SGN B   1      23.531  14.015  12.8320  0.00  0.00     0.000 HD
ENDROOT
BRANCH 2 13
ATOM     11   N  SGN B   1      25.524  18.537  12.2300  0.00  0.00     0.000 N
ATOM     13  HD  SGN B   1      25.266  18.611  13.0530  0.00  0.00     0.000 HD
ATOM     13   S  SGN B   1      25.373  20.078  12.6700  0.00  0.00     0.000 S
ATOM     14   O  SGN B   1      24.473  20.188  13.7500  0.00  0.00     0.000 OA
ATOM     15   O  SGN B   1      26.676  20.643  12.7840  0.00  0.00     0.000 OA
ATOM     16   O  SGN B   1      24.748  20.626  11.3500  0.00  0.00     0.000 OA
ENDBRANCH 2 13
BRANCH 5 17
ATOM     17   C  SGN B   1      25.666  13.462  13.9150  0.00  0.00     0.000 C
ATOM     18   O  SGN B   1      27.107  13.502  13.8770  0.00  0.00     0.000 O
ATOM     19   S  SGN B   1      27.808  12.526  12.8230  0.00  0.00     0.000 S
ATOM     20   O  SGN B   1      29.219  12.580  13.1420  0.00  0.00     0.000 OA
ATOM     21   O  SGN B   1      27.206  11.238  13.0790  0.00  0.00     0.000 OA
ATOM     22   O  SGN B   1      27.486  13.077  11.5250  0.00  0.00     0.000 OA
ENDBRANCH 5 17
BRANCH 1 23
ATOM     23  O4  IDS B   2      26.158  17.461  15.2190  0.00  0.00     0.000 O
BRANCH 23 27
ATOM     24  C1  IDS B   2      25.562  18.811  19.0990  0.00  0.00     0.000 C
ATOM     25  C2  IDS B   2      24.412  19.099  18.1090  0.00  0.00     0.000 C
ATOM     26  C3  IDS B   2      24.597  18.313  16.8130  0.00  0.00     0.000 C
ATOM     27  C4  IDS B   2      25.949  18.543  16.1510  0.00  0.00     0.000 C
ATOM     28  C5  IDS B   2      27.046  18.679  17.2270  0.00  0.00     0.000 C
ATOM     29  O5  IDS B   2      26.628  18.102  18.4540  0.00  0.00     0.000 O
ATOM     30   O  IDS B   2      23.592  18.699  15.8830  0.00  0.00     0.000 O
ATOM     32  HD  IDS B   2      23.764  19.449  15.4870  0.00  0.00     0.000 HD
BRANCH 25 32
ATOM     32   O  IDS B   2      23.086  18.737  18.6670  0.00  0.00     0.000 O
ATOM     33   S  IDS B   2      21.899  19.861  18.8910  0.00  0.00     0.000 S
ATOM     34   O  IDS B   2      20.851  19.197  19.6500  0.00  0.00     0.000 OA
ATOM     35   O  IDS B   2      22.441  21.000  19.6170  0.00  0.00     0.000 OA
ATOM     36   O  IDS B   2      21.444  20.218  17.5670  0.00  0.00     0.000 OA
ENDBRANCH 25 32
BRANCH 28 37
ATOM     37   C  IDS B   2      28.453  18.142  16.8930  0.00  0.00     0.000 C
ATOM     38   O  IDS B   2      28.697  17.095  17.4450  0.00  0.00     0.000 OA
ATOM     39   O  IDS B   2      29.282  18.642  16.0930  0.00  0.00     0.000 OA
ENDBRANCH 28 37
BRANCH 24 40
ATOM     40  O4  SUS B   3      25.613  19.465  20.2780  0.00  0.00     0.000 O
BRANCH 40 44
ATOM     41  C1  SUS B   3      27.022  18.135  23.9920  0.00  0.00     0.000 C
ATOM     42  C2  SUS B   3      28.032  18.844  23.0680  0.00  0.00     0.000 C
ATOM     43  C3  SUS B   3      27.272  19.660  22.0250  0.00  0.00     0.000 C
ATOM     44  C4  SUS B   3      26.303  18.745  21.2940  0.00  0.00     0.000 C
ATOM     45  C5  SUS B   3      25.310  18.184  22.2920  0.00  0.00     0.000 C
ATOM     46  O5  SUS B   3      26.038  17.398  23.2580  0.00  0.00     0.000 O
BRANCH 42 49
ATOM     47   N  SUS B   3      29.002  19.653  23.8270  0.00  0.00     0.000 N
ATOM     49  HD  SUS B   3      29.110  20.472  23.5670  0.00  0.00     0.000 HD
ATOM     49   S  SUS B   3      30.445  18.964  23.9160  0.00  0.00     0.000 S
ATOM     50   O  SUS B   3      30.942  18.722  22.6190  0.00  0.00     0.000 OA
ATOM     51   O  SUS B   3      31.178  20.165  24.5660  0.00  0.00     0.000 OA
ATOM     52   O  SUS B   3      30.388  17.873  24.8060  0.00  0.00     0.000 OA
ENDBRANCH 42 49
BRANCH 43 53
ATOM     53   O  SUS B   3      28.256  20.211  21.0730  0.00  0.00     0.000 O
ATOM     54   S  SUS B   3      28.444  21.844  21.0500  0.00  0.00     0.000 S
ATOM     55   O  SUS B   3      29.120  22.224  22.2820  0.00  0.00     0.000 OA
ATOM     56   O  SUS B   3      29.226  22.092  19.8520  0.00  0.00     0.000 OA
ATOM     57   O  SUS B   3      27.095  22.416  20.9870  0.00  0.00     0.000 OA
ENDBRANCH 43 53
BRANCH 45 58
ATOM     58   C  SUS B   3      24.249  17.339  21.6230  0.00  0.00     0.000 C
ATOM     59   S  SUS B   3      23.140  15.027  21.7070  0.00  0.00     0.000 S
ATOM     60   O  SUS B   3      24.058  16.130  22.3760  0.00  0.00     0.000 O
ATOM     61   O  SUS B   3      23.978  14.390  20.7100  0.00  0.00     0.000 OA
ATOM     62   O  SUS B   3      22.876  14.177  22.8370  0.00  0.00     0.000 OA
ATOM     63   O  SUS B   3      22.014  15.727  21.1970  0.00  0.00     0.000 OA
ENDBRANCH 45 58
BRANCH 41 64
ATOM     64  O4  IDS B   4      26.502  18.947  24.9700  0.00  0.00     0.000 O
BRANCH 64 68
ATOM     65  C1  IDS B   4      25.565  19.838  28.3770  0.00  0.00     0.000 C
ATOM     66  C2  IDS B   4      26.846  19.037  28.1130  0.00  0.00     0.000 C
ATOM     67  C3  IDS B   4      26.673  17.875  27.1500  0.00  0.00     0.000 C
ATOM     68  C4  IDS B   4      25.772  18.210  25.9760  0.00  0.00     0.000 C
ATOM     69  C5  IDS B   4      24.547  18.961  26.5140  0.00  0.00     0.000 C
ATOM     70  O5  IDS B   4      24.974  20.176  27.1340  0.00  0.00     0.000 O
ATOM     71   O  IDS B   4      26.122  16.801  27.8840  0.00  0.00     0.000 O
ATOM     73  HD  IDS B   4      26.529  17.558  27.7820  0.00  0.00     0.000 HD
BRANCH 66 73
ATOM     73   O  IDS B   4      27.836  19.923  27.4830  0.00  0.00     0.000 O
ATOM     74   S  IDS B   4      29.289  20.054  28.1820  0.00  0.00     0.000 S
ATOM     75   O  IDS B   4      29.051  20.481  29.5440  0.00  0.00     0.000 OA
ATOM     76   O  IDS B   4      29.925  21.050  27.3570  0.00  0.00     0.000 OA
ATOM     77   O  IDS B   4      29.881  18.740  28.0900  0.00  0.00     0.000 OA
ENDBRANCH 66 73
BRANCH 69 78
ATOM     78   C  IDS B   4      23.441  19.176  25.4900  0.00  0.00     0.000 C
ATOM     79   O  IDS B   4      22.987  20.309  25.3390  0.00  0.00     0.000 OA
ATOM     80   O  IDS B   4      23.106  18.221  24.7650  0.00  0.00     0.000 OA
ENDBRANCH 69 78
BRANCH 65 81
ATOM     81  O4  SGN B   5      24.783  19.162  29.2640  0.00  0.00     0.000 O
BRANCH 81 85
ATOM     82  C1  SGN B   5      21.944  19.648  32.3200  0.00  0.00     0.000 C
ATOM     83  C2  SGN B   5      21.616  20.276  30.9570  0.00  0.00     0.000 C
ATOM     84  C3  SGN B   5      22.488  19.630  29.8710  0.00  0.00     0.000 C
ATOM     85  C4  SGN B   5      23.950  19.766  30.2560  0.00  0.00     0.000 C
ATOM     86  C5  SGN B   5      24.156  19.089  31.6080  0.00  0.00     0.000 C
ATOM     87  O5  SGN B   5      23.330  19.749  32.5860  0.00  0.00     0.000 O
ATOM     88   O  SGN B   5      22.233  20.241  28.6250  0.00  0.00     0.000 O
ATOM     90  HD  SGN B   5      21.923  19.474  28.8810  0.00  0.00     0.000 HD
BRANCH 83 92
ATOM     90   N  SGN B   5      20.181  20.156  31.2800  0.00  0.00     0.000 N
ATOM     92  HD  SGN B   5      20.066  19.758  32.0400  0.00  0.00     0.000 HD
ATOM     92   S  SGN B   5      19.247  21.429  31.0350  0.00  0.00     0.000 S
ATOM     93   O  SGN B   5      17.944  20.997  31.4440  0.00  0.00     0.000 OA
ATOM     94   O  SGN B   5      19.883  22.510  31.7060  0.00  0.00     0.000 OA
ATOM     95   O  SGN B   5      19.346  21.699  29.5490  0.00  0.00     0.000 OA
ENDBRANCH 83 92
BRANCH 86 96
ATOM     96   C  SGN B   5      25.583  19.136  32.1160  0.00  0.00     0.000 C
ATOM     97   O  SGN B   5      25.970  17.866  32.6450  0.00  0.00     0.000 O
ATOM     98   S  SGN B   5      27.353  17.265  32.0990  0.00  0.00     0.000 S
ATOM     99   O  SGN B   5      27.559  16.118  32.9500  0.00  0.00     0.000 OA
ATOM    100   O  SGN B   5      27.171  16.959  30.7250  0.00  0.00     0.000 OA
ATOM    101   O  SGN B   5      28.303  18.308  32.3150  0.00  0.00     0.000 OA
ENDBRANCH 86 96
BRANCH 82 102
ATOM    102  O4  IDS B   6      21.536  18.351  32.4120  0.00  0.00     0.000 O
BRANCH 102 106
ATOM    103  C1  IDS B   6      19.499  15.795  34.0160  0.00  0.00     0.000 C
ATOM    104  C2  IDS B   6      19.025  17.256  33.9600  0.00  0.00     0.000 C
ATOM    105  C3  IDS B   6      20.067  18.285  34.3530  0.00  0.00     0.000 C
ATOM    106  C4  IDS B   6      21.446  17.962  33.8060  0.00  0.00     0.000 C
ATOM    107  C5  IDS B   6      21.733  16.467  33.9740  0.00  0.00     0.000 C
ATOM    108  O5  IDS B   6      20.737  15.660  33.3440  0.00  0.00     0.000 O
ATOM    109   O  IDS B   6      20.094  18.367  35.7690  0.00  0.00     0.000 O
ATOM    111  HD  IDS B   6      19.771  17.606  36.0280  0.00  0.00     0.000 HD
BRANCH 104 111
ATOM    111   O  IDS B   6      18.657  17.587  32.5740  0.00  0.00     0.000 O
ATOM    112   S  IDS B   6      17.114  17.480  32.1600  0.00  0.00     0.000 S
ATOM    113   O  IDS B   6      16.757  16.096  32.4310  0.00  0.00     0.000 OA
ATOM    114   O  IDS B   6      16.356  18.471  32.9320  0.00  0.00     0.000 OA
ATOM    115   O  IDS B   6      17.229  17.792  30.7510  0.00  0.00     0.000 OA
ENDBRANCH 104 111
BRANCH 107 116
ATOM    116   C  IDS B   6      23.103  16.148  33.3890  0.00  0.00     0.000 C
ATOM    117   O  IDS B   6      24.025  16.103  34.1630  0.00  0.00     0.000 OA
ATOM    118   O  IDS B   6      23.254  15.956  32.1930  0.00  0.00     0.000 OA
ENDBRANCH 107 116
BRANCH 103 119
ATOM    119  O4  SGN B   7      19.367  15.466  35.3270  0.00  0.00     0.000 O
BRANCH 119 123
ATOM    120  C1  SGN B   7      19.122  11.940  37.5640  0.00  0.00     0.000 C
ATOM    121  C2  SGN B   7      20.502  12.335  37.0030  0.00  0.00     0.000 C
ATOM    122  C3  SGN B   7      20.506  13.808  36.5740  0.00  0.00     0.000 C
ATOM    123  C4  SGN B   7      19.355  14.067  35.6160  0.00  0.00     0.000 C
ATOM    124  C5  SGN B   7      18.029  13.635  36.2630  0.00  0.00     0.000 C
ATOM    125  O5  SGN B   7      18.069  12.243  36.6500  0.00  0.00     0.000 O
ATOM    126   O  SGN B   7      21.768  14.113  35.9680  0.00  0.00     0.000 O
ATOM    128  HD  SGN B   7      21.284  13.554  36.4200  0.00  0.00     0.000 HD
BRANCH 121 130
ATOM    128   N  SGN B   7      21.126  11.013  37.1010  0.00  0.00     0.000 N
ATOM    130  HD  SGN B   7      21.769  11.270  36.5810  0.00  0.00     0.000 HD
ATOM    130   S  SGN B   7      22.467  10.757  37.9560  0.00  0.00     0.000 S
ATOM    131   O  SGN B   7      22.210  11.332  39.2320  0.00  0.00     0.000 OA
ATOM    132   O  SGN B   7      22.813   9.387  37.8420  0.00  0.00     0.000 OA
ATOM    133   O  SGN B   7      23.515  11.505  37.0640  0.00  0.00     0.000 OA
ENDBRANCH 121 130
BRANCH 124 134
ATOM    134   C  SGN B   7      16.844  13.745  35.3500  0.00  0.00     0.000 C
ATOM    135   O  SGN B   7      16.508  12.430  34.8760  0.00  0.00     0.000 O
ATOM    136   S  SGN B   7      15.194  12.307  34.0230  0.00  0.00     0.000 S
ATOM    137   O  SGN B   7      15.124  10.936  33.5800  0.00  0.00     0.000 OA
ATOM    138   O  SGN B   7      15.361  13.245  32.9360  0.00  0.00     0.000 OA
ATOM    139   O  SGN B   7      14.163  12.673  34.9820  0.00  0.00     0.000 OA
ENDBRANCH 124 134
BRANCH 120 140
ATOM    140  O4  IDS B   8      18.544  12.358  38.6950  0.00  0.00     0.000 O
BRANCH 140 144
ATOM    141  C1  IDS B   8      17.748  11.093  41.9700  0.00  0.00     0.000 C
ATOM    142  C2  IDS B   8      17.686  10.170  40.7200  0.00  0.00     0.000 C
ATOM    143  C3  IDS B   8      16.907  10.794  39.5470  0.00  0.00     0.000 C
ATOM    144  C4  IDS B   8      17.267  12.264  39.3390  0.00  0.00     0.000 C
ATOM    145  C5  IDS B   8      17.300  12.998  40.6880  0.00  0.00     0.000 C
ATOM    146  O5  IDS B   8      18.210  12.385  41.5980  0.00  0.00     0.000 O
BRANCH 142 147
ATOM    147   O  IDS B   8      19.065   9.897  40.2370  0.00  0.00     0.000 O
ATOM    148   S  IDS B   8      19.453   8.465  39.5820  0.00  0.00     0.000 S
ATOM    149   O  IDS B   8      18.414   7.525  39.9350  0.00  0.00     0.000 OA
ATOM    150   O  IDS B   8      19.534   8.702  38.1530  0.00  0.00     0.000 OA
ATOM    151   O  IDS B   8      20.729   8.108  40.1730  0.00  0.00     0.000 OA
ENDBRANCH 142 147
BRANCH 145 152
ATOM    152   C  IDS B   8      17.748  14.439  40.5570  0.00  0.00     0.000 C
ATOM    153   O  IDS B   8      17.861  15.131  41.5630  0.00  0.00     0.000 OA
ATOM    154   O  IDS B   8      18.011  14.890  39.4560  0.00  0.00     0.000 OA
ENDBRANCH 145 152
ENDBRANCH 140 144
ENDBRANCH 120 140
ENDBRANCH 119 123
ENDBRANCH 103 119
ENDBRANCH 102 106
ENDBRANCH 82 102
ENDBRANCH 81 85
ENDBRANCH 65 81
ENDBRANCH 64 68
ENDBRANCH 41 64
ENDBRANCH 40 44
ENDBRANCH 24 40
ENDBRANCH 23 27
ENDBRANCH 1 23
TORSDOF 31
ENDMDL
MODEL 36
REMARK VINA RESULT:      -7.1      8.597     12.657
ROOT
ATOM      1  C1  SGN B   1      28.184  10.860  14.3840  0.00  0.00     0.000 C
ATOM      2  C2  SGN B   1      29.498  10.473  15.0820  0.00  0.00     0.000 C
ATOM      3  C3  SGN B   1      30.180   9.312  14.3500  0.00  0.00     0.000 C
ATOM      4  C4  SGN B   1      29.225   8.128  14.2360  0.00  0.00     0.000 C
ATOM      5  C5  SGN B   1      27.893   8.614  13.6670  0.00  0.00     0.000 C
ATOM      6  O5  SGN B   1      27.385   9.688  14.4820  0.00  0.00     0.000 O
ATOM      7   O  SGN B   1      31.372   8.927  15.0240  0.00  0.00     0.000 O
ATOM      9  HD  SGN B   1      30.772   8.780  15.6310  0.00  0.00     0.000 HD
ATOM      9   O  SGN B   1      29.790   7.148  13.3850  0.00  0.00     0.000 O
ATOM     11  HD  SGN B   1      29.190   7.001  13.9920  0.00  0.00     0.000 HD
ENDROOT
BRANCH 2 13
ATOM     11   N  SGN B   1      29.311  11.523  16.1010  0.00  0.00     0.000 N
ATOM     13  HD  SGN B   1      29.516  11.732  15.2860  0.00  0.00     0.000 HD
ATOM     13   S  SGN B   1      30.069  12.940  16.0230  0.00  0.00     0.000 S
ATOM     14   O  SGN B   1      30.850  13.009  14.8500  0.00  0.00     0.000 OA
ATOM     15   O  SGN B   1      29.125  13.971  16.2970  0.00  0.00     0.000 OA
ATOM     16   O  SGN B   1      30.962  12.786  17.2920  0.00  0.00     0.000 OA
ENDBRANCH 2 13
BRANCH 5 17
ATOM     17   C  SGN B   1      26.825   7.550  13.6080  0.00  0.00     0.000 C
ATOM     18   O  SGN B   1      25.848   7.857  12.5940  0.00  0.00     0.000 O
ATOM     19   S  SGN B   1      24.317   7.674  13.0180  0.00  0.00     0.000 S
ATOM     20   O  SGN B   1      23.568   7.810  11.7860  0.00  0.00     0.000 OA
ATOM     21   O  SGN B   1      24.264   6.346  13.5830  0.00  0.00     0.000 OA
ATOM     22   O  SGN B   1      24.060   8.730  13.9720  0.00  0.00     0.000 OA
ENDBRANCH 5 17
BRANCH 1 23
ATOM     23  O4  IDS B   2      27.713  11.686  13.4070  0.00  0.00     0.000 O
BRANCH 23 27
ATOM     24  C1  IDS B   2      25.742  15.205  14.3890  0.00  0.00     0.000 C
ATOM     25  C2  IDS B   2      24.932  13.906  14.5980  0.00  0.00     0.000 C
ATOM     26  C3  IDS B   2      25.834  12.679  14.4960  0.00  0.00     0.000 C
ATOM     27  C4  IDS B   2      26.629  12.615  13.1990  0.00  0.00     0.000 C
ATOM     28  C5  IDS B   2      27.073  14.032  12.7830  0.00  0.00     0.000 C
ATOM     29  O5  IDS B   2      27.056  14.916  13.8940  0.00  0.00     0.000 O
ATOM     30   O  IDS B   2      25.035  11.504  14.5680  0.00  0.00     0.000 O
ATOM     32  HD  IDS B   2      24.640  11.313  13.8220  0.00  0.00     0.000 HD
BRANCH 25 32
ATOM     32   O  IDS B   2      24.269  13.866  15.9240  0.00  0.00     0.000 O
ATOM     33   S  IDS B   2      22.625  13.863  16.0770  0.00  0.00     0.000 S
ATOM     34   O  IDS B   2      22.350  14.047  17.4930  0.00  0.00     0.000 OA
ATOM     35   O  IDS B   2      22.064  14.946  15.2810  0.00  0.00     0.000 OA
ATOM     36   O  IDS B   2      22.193  12.563  15.6200  0.00  0.00     0.000 OA
ENDBRANCH 25 32
BRANCH 28 37
ATOM     37   C  IDS B   2      28.432  14.180  12.0670  0.00  0.00     0.000 C
ATOM     38   O  IDS B   2      28.400  13.797  10.9210  0.00  0.00     0.000 OA
ATOM     39   O  IDS B   2      29.479  14.693  12.5320  0.00  0.00     0.000 OA
ENDBRANCH 28 37
BRANCH 24 40
ATOM     40  O4  SUS B   3      25.110  16.397  14.3760  0.00  0.00     0.000 O
BRANCH 40 44
ATOM     41  C1  SUS B   3      26.368  20.152  15.7420  0.00  0.00     0.000 C
ATOM     42  C2  SUS B   3      27.138  19.539  14.5550  0.00  0.00     0.000 C
ATOM     43  C3  SUS B   3      26.279  18.458  13.9020  0.00  0.00     0.000 C
ATOM     44  C4  SUS B   3      25.871  17.447  14.9620  0.00  0.00     0.000 C
ATOM     45  C5  SUS B   3      25.047  18.152  16.0200  0.00  0.00     0.000 C
ATOM     46  O5  SUS B   3      25.876  19.154  16.6430  0.00  0.00     0.000 O
BRANCH 42 49
ATOM     47   N  SUS B   3      27.562  20.689  13.7380  0.00  0.00     0.000 N
ATOM     49  HD  SUS B   3      27.273  20.712  12.9220  0.00  0.00     0.000 HD
ATOM     49   S  SUS B   3      29.153  20.873  13.7080  0.00  0.00     0.000 S
ATOM     50   O  SUS B   3      29.763  19.698  13.2240  0.00  0.00     0.000 OA
ATOM     51   O  SUS B   3      29.184  21.989  12.6320  0.00  0.00     0.000 OA
ATOM     52   O  SUS B   3      29.589  21.370  14.9530  0.00  0.00     0.000 OA
ENDBRANCH 42 49
BRANCH 43 53
ATOM     53   O  SUS B   3      27.092  17.797  12.8630  0.00  0.00     0.000 O
ATOM     54   S  SUS B   3      26.667  18.060  11.2970  0.00  0.00     0.000 S
ATOM     55   O  SUS B   3      27.013  19.437  10.9770  0.00  0.00     0.000 OA
ATOM     56   O  SUS B   3      27.433  17.075  10.5550  0.00  0.00     0.000 OA
ATOM     57   O  SUS B   3      25.219  17.844  11.2190  0.00  0.00     0.000 OA
ENDBRANCH 43 53
BRANCH 45 58
ATOM     58   C  SUS B   3      24.519  17.189  17.0610  0.00  0.00     0.000 C
ATOM     59   S  SUS B   3      25.179  15.960  19.2150  0.00  0.00     0.000 S
ATOM     60   O  SUS B   3      25.464  17.087  18.1390  0.00  0.00     0.000 O
ATOM     61   O  SUS B   3      25.607  14.722  18.5910  0.00  0.00     0.000 OA
ATOM     62   O  SUS B   3      26.053  16.378  20.2780  0.00  0.00     0.000 OA
ATOM     63   O  SUS B   3      23.791  16.049  19.4990  0.00  0.00     0.000 OA
ENDBRANCH 45 58
BRANCH 41 64
ATOM     64  O4  IDS B   4      25.432  21.085  15.3720  0.00  0.00     0.000 O
BRANCH 64 68
ATOM     65  C1  IDS B   4      23.536  24.196  15.4430  0.00  0.00     0.000 C
ATOM     66  C2  IDS B   4      25.069  24.225  15.4820  0.00  0.00     0.000 C
ATOM     67  C3  IDS B   4      25.691  23.246  16.4630  0.00  0.00     0.000 C
ATOM     68  C4  IDS B   4      24.990  21.901  16.4790  0.00  0.00     0.000 C
ATOM     69  C5  IDS B   4      23.476  22.151  16.4880  0.00  0.00     0.000 C
ATOM     70  O5  IDS B   4      23.108  22.853  15.2980  0.00  0.00     0.000 O
ATOM     71   O  IDS B   4      25.621  23.836  17.7450  0.00  0.00     0.000 O
ATOM     73  HD  IDS B   4      25.605  23.830  16.8790  0.00  0.00     0.000 HD
BRANCH 66 73
ATOM     73   O  IDS B   4      25.582  23.834  14.1610  0.00  0.00     0.000 O
ATOM     74   S  IDS B   4      26.510  24.894  13.3650  0.00  0.00     0.000 S
ATOM     75   O  IDS B   4      25.732  26.109  13.2440  0.00  0.00     0.000 OA
ATOM     76   O  IDS B   4      26.731  24.212  12.1140  0.00  0.00     0.000 OA
ATOM     77   O  IDS B   4      27.695  25.052  14.1730  0.00  0.00     0.000 OA
ENDBRANCH 66 73
BRANCH 69 78
ATOM     78   C  IDS B   4      22.633  20.906  16.7250  0.00  0.00     0.000 C
ATOM     79   O  IDS B   4      22.805  20.265  17.7610  0.00  0.00     0.000 OA
ATOM     80   O  IDS B   4      21.726  20.637  15.9160  0.00  0.00     0.000 OA
ENDBRANCH 69 78
BRANCH 65 81
ATOM     81  O4  SGN B   5      23.043  24.884  16.5100  0.00  0.00     0.000 O
BRANCH 81 85
ATOM     82  C1  SGN B   5      19.587  26.872  17.8320  0.00  0.00     0.000 C
ATOM     83  C2  SGN B   5      19.807  25.440  18.3430  0.00  0.00     0.000 C
ATOM     84  C3  SGN B   5      21.281  25.050  18.1610  0.00  0.00     0.000 C
ATOM     85  C4  SGN B   5      21.670  25.231  16.7040  0.00  0.00     0.000 C
ATOM     86  C5  SGN B   5      21.431  26.689  16.3210  0.00  0.00     0.000 C
ATOM     87  O5  SGN B   5      20.033  26.989  16.4940  0.00  0.00     0.000 O
ATOM     88   O  SGN B   5      21.479  23.716  18.5750  0.00  0.00     0.000 O
ATOM     90  HD  SGN B   5      21.686  24.420  19.0340  0.00  0.00     0.000 HD
BRANCH 83 92
ATOM     90   N  SGN B   5      18.563  25.830  19.0350  0.00  0.00     0.000 N
ATOM     92  HD  SGN B   5      18.026  26.246  18.4970  0.00  0.00     0.000 HD
ATOM     92   S  SGN B   5      17.866  24.756  19.9900  0.00  0.00     0.000 S
ATOM     93   O  SGN B   5      16.705  25.428  20.4920  0.00  0.00     0.000 OA
ATOM     94   O  SGN B   5      17.724  23.577  19.2060  0.00  0.00     0.000 OA
ATOM     95   O  SGN B   5      18.896  24.466  21.0590  0.00  0.00     0.000 OA
ENDBRANCH 83 92
BRANCH 86 96
ATOM     96   C  SGN B   5      21.790  27.022  14.8880  0.00  0.00     0.000 C
ATOM     97   O  SGN B   5      21.017  26.232  13.9810  0.00  0.00     0.000 O
ATOM     98   S  SGN B   5      20.260  27.033  12.8150  0.00  0.00     0.000 S
ATOM     99   O  SGN B   5      19.758  25.973  11.9750  0.00  0.00     0.000 OA
ATOM    100   O  SGN B   5      19.258  27.830  13.4270  0.00  0.00     0.000 OA
ATOM    101   O  SGN B   5      21.285  27.808  12.1950  0.00  0.00     0.000 OA
ENDBRANCH 86 96
BRANCH 82 102
ATOM    102  O4  IDS B   6      20.192  27.807  18.6180  0.00  0.00     0.000 O
BRANCH 102 106
ATOM    103  C1  IDS B   6      19.780  30.837  20.5940  0.00  0.00     0.000 C
ATOM    104  C2  IDS B   6      18.586  29.910  20.3190  0.00  0.00     0.000 C
ATOM    105  C3  IDS B   6      18.433  29.471  18.8750  0.00  0.00     0.000 C
ATOM    106  C4  IDS B   6      19.761  29.134  18.2210  0.00  0.00     0.000 C
ATOM    107  C5  IDS B   6      20.808  30.184  18.6040  0.00  0.00     0.000 C
ATOM    108  O5  IDS B   6      20.955  30.298  20.0200  0.00  0.00     0.000 O
ATOM    109   O  IDS B   6      17.771  30.506  18.1670  0.00  0.00     0.000 O
ATOM    111  HD  IDS B   6      17.927  31.215  18.6390  0.00  0.00     0.000 HD
BRANCH 104 111
ATOM    111   O  IDS B   6      18.757  28.668  21.0870  0.00  0.00     0.000 O
ATOM    112   S  IDS B   6      17.812  28.433  22.3580  0.00  0.00     0.000 S
ATOM    113   O  IDS B   6      18.076  29.570  23.2260  0.00  0.00     0.000 OA
ATOM    114   O  IDS B   6      16.425  28.326  21.8920  0.00  0.00     0.000 OA
ATOM    115   O  IDS B   6      18.371  27.186  22.8370  0.00  0.00     0.000 OA
ENDBRANCH 104 111
BRANCH 107 116
ATOM    116   C  IDS B   6      22.144  29.817  17.9720  0.00  0.00     0.000 C
ATOM    117   O  IDS B   6      22.981  29.352  18.7050  0.00  0.00     0.000 OA
ATOM    118   O  IDS B   6      22.356  29.996  16.7830  0.00  0.00     0.000 OA
ENDBRANCH 107 116
BRANCH 103 119
ATOM    119  O4  SGN B   7      19.322  32.066  20.2420  0.00  0.00     0.000 O
BRANCH 119 123
ATOM    120  C1  SGN B   7      19.851  35.999  21.5600  0.00  0.00     0.000 C
ATOM    121  C2  SGN B   7      20.995  35.358  20.7520  0.00  0.00     0.000 C
ATOM    122  C3  SGN B   7      20.498  34.107  20.0160  0.00  0.00     0.000 C
ATOM    123  C4  SGN B   7      19.834  33.160  21.0020  0.00  0.00     0.000 C
ATOM    124  C5  SGN B   7      18.716  33.894  21.7600  0.00  0.00     0.000 C
ATOM    125  O5  SGN B   7      19.229  35.063  22.4380  0.00  0.00     0.000 O
ATOM    126   O  SGN B   7      21.606  33.482  19.3580  0.00  0.00     0.000 O
ATOM    128  HD  SGN B   7      21.296  34.168  19.7870  0.00  0.00     0.000 HD
BRANCH 121 130
ATOM    128   N  SGN B   7      21.879  36.456  21.1500  0.00  0.00     0.000 N
ATOM    130  HD  SGN B   7      22.561  35.922  21.1340  0.00  0.00     0.000 HD
ATOM    130   S  SGN B   7      22.910  37.144  20.1230  0.00  0.00     0.000 S
ATOM    131   O  SGN B   7      22.134  37.463  18.9740  0.00  0.00     0.000 OA
ATOM    132   O  SGN B   7      23.618  38.160  20.8150  0.00  0.00     0.000 OA
ATOM    133   O  SGN B   7      23.950  35.985  19.9500  0.00  0.00     0.000 OA
ENDBRANCH 121 130
BRANCH 124 134
ATOM    134   C  SGN B   7      18.075  33.074  22.8410  0.00  0.00     0.000 C
ATOM    135   O  SGN B   7      17.920  33.898  24.0090  0.00  0.00     0.000 O
ATOM    136   S  SGN B   7      17.126  33.268  25.2090  0.00  0.00     0.000 S
ATOM    137   O  SGN B   7      17.191  34.227  26.2870  0.00  0.00     0.000 OA
ATOM    138   O  SGN B   7      17.812  32.033  25.5100  0.00  0.00     0.000 OA
ATOM    139   O  SGN B   7      15.795  33.097  24.6480  0.00  0.00     0.000 OA
ENDBRANCH 124 134
BRANCH 120 140
ATOM    140  O4  IDS B   8      18.755  36.608  21.0940  0.00  0.00     0.000 O
BRANCH 140 144
ATOM    141  C1  IDS B   8      15.888  37.180  18.9930  0.00  0.00     0.000 C
ATOM    142  C2  IDS B   8      17.208  36.606  18.4050  0.00  0.00     0.000 C
ATOM    143  C3  IDS B   8      18.455  37.403  18.8290  0.00  0.00     0.000 C
ATOM    144  C4  IDS B   8      18.427  37.764  20.3130  0.00  0.00     0.000 C
ATOM    145  C5  IDS B   8      17.036  38.288  20.7040  0.00  0.00     0.000 C
ATOM    146  O5  IDS B   8      16.013  37.343  20.4000  0.00  0.00     0.000 O
BRANCH 142 147
ATOM    147   O  IDS B   8      17.396  35.210  18.8800  0.00  0.00     0.000 O
ATOM    148   S  IDS B   8      16.980  33.947  17.9510  0.00  0.00     0.000 S
ATOM    149   O  IDS B   8      16.114  34.440  16.9040  0.00  0.00     0.000 OA
ATOM    150   O  IDS B   8      18.230  33.414  17.4410  0.00  0.00     0.000 OA
ATOM    151   O  IDS B   8      16.290  33.031  18.8380  0.00  0.00     0.000 OA
ENDBRANCH 142 147
BRANCH 145 152
ATOM    152   C  IDS B   8      16.915  38.570  22.1880  0.00  0.00     0.000 C
ATOM    153   O  IDS B   8      16.076  37.971  22.8510  0.00  0.00     0.000 OA
ATOM    154   O  IDS B   8      17.666  39.374  22.7110  0.00  0.00     0.000 OA
ENDBRANCH 145 152
ENDBRANCH 140 144
ENDBRANCH 120 140
ENDBRANCH 119 123
ENDBRANCH 103 119
ENDBRANCH 102 106
ENDBRANCH 82 102
ENDBRANCH 81 85
ENDBRANCH 65 81
ENDBRANCH 64 68
ENDBRANCH 41 64
ENDBRANCH 40 44
ENDBRANCH 24 40
ENDBRANCH 23 27
ENDBRANCH 1 23
TORSDOF 31
ENDMDL
MODEL 37
REMARK VINA RESULT:      -7.1     10.198     16.836
ROOT
ATOM      1  C1  SGN B   1      14.171  20.041  20.4120  0.00  0.00     0.000 C
ATOM      2  C2  SGN B   1      12.956  19.102  20.4800  0.00  0.00     0.000 C
ATOM      3  C3  SGN B   1      12.334  18.919  19.0910  0.00  0.00     0.000 C
ATOM      4  C4  SGN B   1      11.976  20.274  18.4910  0.00  0.00     0.000 C
ATOM      5  C5  SGN B   1      13.188  21.198  18.5860  0.00  0.00     0.000 C
ATOM      6  O5  SGN B   1      13.630  21.273  19.9560  0.00  0.00     0.000 O
ATOM      7   O  SGN B   1      11.183  18.085  19.1640  0.00  0.00     0.000 O
ATOM      9  HD  SGN B   1      10.953  18.749  19.6710  0.00  0.00     0.000 HD
ATOM      9   O  SGN B   1      11.597  20.104  17.1370  0.00  0.00     0.000 O
ATOM     11  HD  SGN B   1      11.367  20.767  17.6440  0.00  0.00     0.000 HD
ENDROOT
BRANCH 2 13
ATOM     11   N  SGN B   1      12.843  18.691  21.8920  0.00  0.00     0.000 N
ATOM     13  HD  SGN B   1      13.609  18.675  21.4890  0.00  0.00     0.000 HD
ATOM     13   S  SGN B   1      13.843  17.621  22.5580  0.00  0.00     0.000 S
ATOM     14   O  SGN B   1      14.816  17.217  21.6200  0.00  0.00     0.000 OA
ATOM     15   O  SGN B   1      14.257  18.120  23.8260  0.00  0.00     0.000 OA
ATOM     16   O  SGN B   1      12.808  16.485  22.8260  0.00  0.00     0.000 OA
ENDBRANCH 2 13
BRANCH 5 17
ATOM     17   C  SGN B   1      12.923  22.609  18.1220  0.00  0.00     0.000 C
ATOM     18   O  SGN B   1      11.624  23.058  18.5570  0.00  0.00     0.000 O
ATOM     19   S  SGN B   1      10.737  23.809  17.4580  0.00  0.00     0.000 S
ATOM     20   O  SGN B   1       9.614  24.355  18.1910  0.00  0.00     0.000 OA
ATOM     21   O  SGN B   1      11.621  24.817  16.9200  0.00  0.00     0.000 OA
ATOM     22   O  SGN B   1      10.366  22.784  16.5070  0.00  0.00     0.000 OA
ENDBRANCH 5 17
BRANCH 1 23
ATOM     23  O4  IDS B   2      15.521  20.005  20.2210  0.00  0.00     0.000 O
BRANCH 23 27
ATOM     24  C1  IDS B   2      18.686  20.173  22.9010  0.00  0.00     0.000 C
ATOM     25  C2  IDS B   2      17.695  21.357  22.9640  0.00  0.00     0.000 C
ATOM     26  C3  IDS B   2      16.431  21.053  22.1630  0.00  0.00     0.000 C
ATOM     27  C4  IDS B   2      16.707  20.658  20.7190  0.00  0.00     0.000 C
ATOM     28  C5  IDS B   2      17.987  19.800  20.6430  0.00  0.00     0.000 C
ATOM     29  O5  IDS B   2      18.287  19.223  21.9050  0.00  0.00     0.000 O
ATOM     30   O  IDS B   2      15.602  22.209  22.1410  0.00  0.00     0.000 O
ATOM     32  HD  IDS B   2      15.860  22.803  21.5660  0.00  0.00     0.000 HD
BRANCH 25 32
ATOM     32   O  IDS B   2      17.281  21.669  24.3540  0.00  0.00     0.000 O
ATOM     33   S  IDS B   2      17.580  23.139  25.0420  0.00  0.00     0.000 S
ATOM     34   O  IDS B   2      17.245  23.001  26.4510  0.00  0.00     0.000 OA
ATOM     35   O  IDS B   2      18.983  23.482  24.8600  0.00  0.00     0.000 OA
ATOM     36   O  IDS B   2      16.695  24.068  24.3790  0.00  0.00     0.000 OA
ENDBRANCH 25 32
BRANCH 28 37
ATOM     37   C  IDS B   2      18.047  18.690  19.5740  0.00  0.00     0.000 C
ATOM     38   O  IDS B   2      18.259  19.119  18.4650  0.00  0.00     0.000 OA
ATOM     39   O  IDS B   2      17.964  17.452  19.7660  0.00  0.00     0.000 OA
ENDBRANCH 28 37
BRANCH 24 40
ATOM     40  O4  SUS B   3      19.895  20.276  23.4920  0.00  0.00     0.000 O
BRANCH 40 44
ATOM     41  C1  SUS B   3      22.159  17.415  25.5490  0.00  0.00     0.000 C
ATOM     42  C2  SUS B   3      22.080  17.281  24.0150  0.00  0.00     0.000 C
ATOM     43  C3  SUS B   3      21.652  18.618  23.4150  0.00  0.00     0.000 C
ATOM     44  C4  SUS B   3      20.349  19.055  24.0660  0.00  0.00     0.000 C
ATOM     45  C5  SUS B   3      20.580  19.239  25.5520  0.00  0.00     0.000 C
ATOM     46  O5  SUS B   3      20.962  17.965  26.1090  0.00  0.00     0.000 O
BRANCH 42 49
ATOM     47   N  SUS B   3      23.383  16.675  23.6950  0.00  0.00     0.000 N
ATOM     49  HD  SUS B   3      23.926  17.153  23.2180  0.00  0.00     0.000 HD
ATOM     49   S  SUS B   3      23.243  15.238  23.0000  0.00  0.00     0.000 S
ATOM     50   O  SUS B   3      22.470  15.347  21.8260  0.00  0.00     0.000 OA
ATOM     51   O  SUS B   3      24.743  15.059  22.6520  0.00  0.00     0.000 OA
ATOM     52   O  SUS B   3      22.839  14.292  23.9620  0.00  0.00     0.000 OA
ENDBRANCH 42 49
BRANCH 43 53
ATOM     53   O  SUS B   3      21.448  18.423  21.9670  0.00  0.00     0.000 O
ATOM     54   S  SUS B   3      22.540  19.121  20.9550  0.00  0.00     0.000 S
ATOM     55   O  SUS B   3      23.789  18.382  21.0850  0.00  0.00     0.000 OA
ATOM     56   O  SUS B   3      21.927  19.008  19.6440  0.00  0.00     0.000 OA
ATOM     57   O  SUS B   3      22.694  20.507  21.4040  0.00  0.00     0.000 OA
ENDBRANCH 43 53
BRANCH 45 58
ATOM     58   C  SUS B   3      19.351  19.771  26.2550  0.00  0.00     0.000 C
ATOM     59   S  SUS B   3      17.147  19.026  27.3390  0.00  0.00     0.000 S
ATOM     60   O  SUS B   3      18.578  18.670  26.7620  0.00  0.00     0.000 O
ATOM     61   O  SUS B   3      16.303  19.211  26.1740  0.00  0.00     0.000 OA
ATOM     62   O  SUS B   3      16.842  17.820  28.0610  0.00  0.00     0.000 OA
ATOM     63   O  SUS B   3      17.338  20.183  28.1410  0.00  0.00     0.000 OA
ENDBRANCH 45 58
BRANCH 41 64
ATOM     64  O4  IDS B   4      23.314  18.012  25.9930  0.00  0.00     0.000 O
BRANCH 64 68
ATOM     65  C1  IDS B   4      26.588  18.027  27.5910  0.00  0.00     0.000 C
ATOM     66  C2  IDS B   4      26.128  16.805  26.7860  0.00  0.00     0.000 C
ATOM     67  C3  IDS B   4      24.711  16.349  27.0930  0.00  0.00     0.000 C
ATOM     68  C4  IDS B   4      23.746  17.504  27.2750  0.00  0.00     0.000 C
ATOM     69  C5  IDS B   4      24.427  18.562  28.1530  0.00  0.00     0.000 C
ATOM     70  O5  IDS B   4      25.602  19.038  27.4910  0.00  0.00     0.000 O
ATOM     71   O  IDS B   4      24.766  15.581  28.2780  0.00  0.00     0.000 O
ATOM     73  HD  IDS B   4      25.091  15.969  27.5750  0.00  0.00     0.000 HD
BRANCH 66 73
ATOM     73   O  IDS B   4      26.125  17.153  25.3580  0.00  0.00     0.000 O
ATOM     74   S  IDS B   4      27.433  16.776  24.4830  0.00  0.00     0.000 S
ATOM     75   O  IDS B   4      28.559  17.409  25.1360  0.00  0.00     0.000 OA
ATOM     76   O  IDS B   4      27.104  17.343  23.2000  0.00  0.00     0.000 OA
ATOM     77   O  IDS B   4      27.502  15.334  24.4960  0.00  0.00     0.000 OA
ENDBRANCH 66 73
BRANCH 69 78
ATOM     78   C  IDS B   4      23.509  19.687  28.6110  0.00  0.00     0.000 C
ATOM     79   O  IDS B   4      22.300  19.470  28.6850  0.00  0.00     0.000 OA
ATOM     80   O  IDS B   4      24.020  20.755  28.9960  0.00  0.00     0.000 OA
ENDBRANCH 69 78
BRANCH 65 81
ATOM     81  O4  SGN B   5      26.940  17.635  28.8470  0.00  0.00     0.000 O
BRANCH 81 85
ATOM     82  C1  SGN B   5      29.717  18.271  31.9330  0.00  0.00     0.000 C
ATOM     83  C2  SGN B   5      28.617  19.329  31.7550  0.00  0.00     0.000 C
ATOM     84  C3  SGN B   5      27.461  18.735  30.9390  0.00  0.00     0.000 C
ATOM     85  C4  SGN B   5      27.998  18.204  29.6210  0.00  0.00     0.000 C
ATOM     86  C5  SGN B   5      29.060  17.150  29.9260  0.00  0.00     0.000 C
ATOM     87  O5  SGN B   5      30.124  17.770  30.6740  0.00  0.00     0.000 O
ATOM     88   O  SGN B   5      26.472  19.718  30.7220  0.00  0.00     0.000 O
ATOM     90  HD  SGN B   5      26.429  19.083  31.3100  0.00  0.00     0.000 HD
BRANCH 83 92
ATOM     90   N  SGN B   5      29.367  19.850  32.9140  0.00  0.00     0.000 N
ATOM     92  HD  SGN B   5      30.221  19.803  32.7780  0.00  0.00     0.000 HD
ATOM     92   S  SGN B   5      28.862  21.210  33.5850  0.00  0.00     0.000 S
ATOM     93   O  SGN B   5      29.786  21.442  34.6550  0.00  0.00     0.000 OA
ATOM     94   O  SGN B   5      28.753  22.148  32.5210  0.00  0.00     0.000 OA
ATOM     95   O  SGN B   5      27.460  20.905  34.0640  0.00  0.00     0.000 OA
ENDBRANCH 83 92
BRANCH 86 96
ATOM     96   C  SGN B   5      29.680  16.520  28.6960  0.00  0.00     0.000 C
ATOM     97   O  SGN B   5      30.493  17.469  28.0010  0.00  0.00     0.000 O
ATOM     98   S  SGN B   5      31.981  16.994  27.6410  0.00  0.00     0.000 S
ATOM     99   O  SGN B   5      32.457  18.058  26.7900  0.00  0.00     0.000 OA
ATOM    100   O  SGN B   5      32.690  16.851  28.8620  0.00  0.00     0.000 OA
ATOM    101   O  SGN B   5      31.802  15.757  26.9530  0.00  0.00     0.000 OA
ENDBRANCH 86 96
BRANCH 82 102
ATOM    102  O4  IDS B   6      29.334  17.249  32.7500  0.00  0.00     0.000 O
BRANCH 102 106
ATOM    103  C1  IDS B   6      29.994  15.231  35.7070  0.00  0.00     0.000 C
ATOM    104  C2  IDS B   6      30.514  16.673  35.6090  0.00  0.00     0.000 C
ATOM    105  C3  IDS B   6      31.198  17.022  34.3010  0.00  0.00     0.000 C
ATOM    106  C4  IDS B   6      30.486  16.438  33.0930  0.00  0.00     0.000 C
ATOM    107  C5  IDS B   6      30.068  14.994  33.3870  0.00  0.00     0.000 C
ATOM    108  O5  IDS B   6      29.245  14.905  34.5520  0.00  0.00     0.000 O
ATOM    109   O  IDS B   6      32.538  16.562  34.3670  0.00  0.00     0.000 O
ATOM    111  HD  IDS B   6      32.514  15.936  34.9650  0.00  0.00     0.000 HD
BRANCH 104 111
ATOM    111   O  IDS B   6      29.377  17.601  35.7120  0.00  0.00     0.000 O
ATOM    112   S  IDS B   6      29.264  18.510  37.0240  0.00  0.00     0.000 S
ATOM    113   O  IDS B   6      29.205  17.559  38.1240  0.00  0.00     0.000 OA
ATOM    114   O  IDS B   6      30.415  19.419  37.0610  0.00  0.00     0.000 OA
ATOM    115   O  IDS B   6      28.004  19.165  36.7470  0.00  0.00     0.000 OA
ENDBRANCH 104 111
BRANCH 107 116
ATOM    116   C  IDS B   6      29.323  14.430  32.1840  0.00  0.00     0.000 C
ATOM    117   O  IDS B   6      29.975  14.222  31.1920  0.00  0.00     0.000 OA
ATOM    118   O  IDS B   6      28.123  14.211  32.2250  0.00  0.00     0.000 OA
ENDBRANCH 107 116
BRANCH 103 119
ATOM    119  O4  SGN B   7      31.093  14.517  36.0610  0.00  0.00     0.000 O
BRANCH 119 123
ATOM    120  C1  SGN B   7      31.916  11.243  38.5300  0.00  0.00     0.000 C
ATOM    121  C2  SGN B   7      31.324  10.955  37.1380  0.00  0.00     0.000 C
ATOM    122  C3  SGN B   7      31.460  12.185  36.2310  0.00  0.00     0.000 C
ATOM    123  C4  SGN B   7      30.856  13.398  36.9180  0.00  0.00     0.000 C
ATOM    124  C5  SGN B   7      31.505  13.596  38.2970  0.00  0.00     0.000 C
ATOM    125  O5  SGN B   7      31.352  12.415  39.1160  0.00  0.00     0.000 O
ATOM    126   O  SGN B   7      30.814  11.916  34.9810  0.00  0.00     0.000 O
ATOM    128  HD  SGN B   7      31.103  11.614  35.7400  0.00  0.00     0.000 HD
BRANCH 121 130
ATOM    128   N  SGN B   7      31.780   9.596  37.4380  0.00  0.00     0.000 N
ATOM    130  HD  SGN B   7      30.997   9.393  37.7470  0.00  0.00     0.000 HD
ATOM    130   S  SGN B   7      31.318   8.322  36.5690  0.00  0.00     0.000 S
ATOM    131   O  SGN B   7      31.561   8.687  35.2150  0.00  0.00     0.000 OA
ATOM    132   O  SGN B   7      31.924   7.163  37.1180  0.00  0.00     0.000 OA
ATOM    133   O  SGN B   7      29.814   8.221  36.9940  0.00  0.00     0.000 OA
ENDBRANCH 121 130
BRANCH 124 134
ATOM    134   C  SGN B   7      30.894  14.703  39.1030  0.00  0.00     0.000 C
ATOM    135   O  SGN B   7      31.313  14.559  40.4710  0.00  0.00     0.000 O
ATOM    136   S  SGN B   7      30.902  15.713  41.4540  0.00  0.00     0.000 S
ATOM    137   O  SGN B   7      31.335  15.301  42.7680  0.00  0.00     0.000 OA
ATOM    138   O  SGN B   7      29.465  15.814  41.3400  0.00  0.00     0.000 OA
ATOM    139   O  SGN B   7      31.631  16.853  40.9200  0.00  0.00     0.000 OA
ENDBRANCH 124 134
BRANCH 120 140
ATOM    140  O4  IDS B   8      33.198  11.442  38.8550  0.00  0.00     0.000 O
BRANCH 140 144
ATOM    141  C1  IDS B   8      36.565  12.674  38.5280  0.00  0.00     0.000 C
ATOM    142  C2  IDS B   8      35.759  12.210  37.2820  0.00  0.00     0.000 C
ATOM    143  C3  IDS B   8      35.089  10.837  37.4730  0.00  0.00     0.000 C
ATOM    144  C4  IDS B   8      34.428  10.708  38.8450  0.00  0.00     0.000 C
ATOM    145  C5  IDS B   8      35.369  11.239  39.9370  0.00  0.00     0.000 C
ATOM    146  O5  IDS B   8      35.752  12.590  39.6920  0.00  0.00     0.000 O
BRANCH 142 147
ATOM    147   O  IDS B   8      34.679  13.191  36.9970  0.00  0.00     0.000 O
ATOM    148   S  IDS B   8      34.854  14.316  35.8410  0.00  0.00     0.000 S
ATOM    149   O  IDS B   8      36.261  14.396  35.5170  0.00  0.00     0.000 OA
ATOM    150   O  IDS B   8      34.047  13.855  34.7270  0.00  0.00     0.000 OA
ATOM    151   O  IDS B   8      34.363  15.547  36.4290  0.00  0.00     0.000 OA
ENDBRANCH 142 147
BRANCH 145 152
ATOM    152   C  IDS B   8      34.731  11.229  41.3120  0.00  0.00     0.000 C
ATOM    153   O  IDS B   8      34.596  12.283  41.9230  0.00  0.00     0.000 OA
ATOM    154   O  IDS B   8      34.339  10.178  41.7860  0.00  0.00     0.000 OA
ENDBRANCH 145 152
ENDBRANCH 140 144
ENDBRANCH 120 140
ENDBRANCH 119 123
ENDBRANCH 103 119
ENDBRANCH 102 106
ENDBRANCH 82 102
ENDBRANCH 81 85
ENDBRANCH 65 81
ENDBRANCH 64 68
ENDBRANCH 41 64
ENDBRANCH 40 44
ENDBRANCH 24 40
ENDBRANCH 23 27
ENDBRANCH 1 23
TORSDOF 31
ENDMDL
MODEL 38
REMARK VINA RESULT:      -7.1      6.931     20.132
ROOT
ATOM      1  C1  SGN B   1      25.285  19.450  31.5730  0.00  0.00     0.000 C
ATOM      2  C2  SGN B   1      24.884  18.008  31.9240  0.00  0.00     0.000 C
ATOM      3  C3  SGN B   1      24.669  17.179  30.6530  0.00  0.00     0.000 C
ATOM      4  C4  SGN B   1      23.640  17.855  29.7530  0.00  0.00     0.000 C
ATOM      5  C5  SGN B   1      24.027  19.320  29.5630  0.00  0.00     0.000 C
ATOM      6  O5  SGN B   1      24.169  19.951  30.8500  0.00  0.00     0.000 O
ATOM      7   O  SGN B   1      24.255  15.858  30.9810  0.00  0.00     0.000 O
ATOM      9  HD  SGN B   1      23.613  16.333  31.3180  0.00  0.00     0.000 HD
ATOM      9   O  SGN B   1      23.603  17.193  28.5010  0.00  0.00     0.000 O
ATOM     11  HD  SGN B   1      22.961  17.668  28.8380  0.00  0.00     0.000 HD
ENDROOT
BRANCH 2 13
ATOM     11   N  SGN B   1      24.880  18.006  33.3990  0.00  0.00     0.000 N
ATOM     13  HD  SGN B   1      25.566  18.303  32.9620  0.00  0.00     0.000 HD
ATOM     13   S  SGN B   1      26.233  17.889  34.2620  0.00  0.00     0.000 S
ATOM     14   O  SGN B   1      27.353  17.845  33.4060  0.00  0.00     0.000 OA
ATOM     15   O  SGN B   1      26.187  18.857  35.3060  0.00  0.00     0.000 OA
ATOM     16   O  SGN B   1      25.961  16.497  34.9130  0.00  0.00     0.000 OA
ENDBRANCH 2 13
BRANCH 5 17
ATOM     17   C  SGN B   1      23.021  20.124  28.7770  0.00  0.00     0.000 C
ATOM     18   O  SGN B   1      21.683  19.639  29.0050  0.00  0.00     0.000 O
ATOM     19   S  SGN B   1      20.768  19.468  27.7050  0.00  0.00     0.000 S
ATOM     20   O  SGN B   1      19.438  19.207  28.2140  0.00  0.00     0.000 OA
ATOM     21   O  SGN B   1      20.887  20.734  27.0200  0.00  0.00     0.000 OA
ATOM     22   O  SGN B   1      21.341  18.353  26.9840  0.00  0.00     0.000 OA
ENDBRANCH 5 17
BRANCH 1 23
ATOM     23  O4  IDS B   2      26.394  20.207  31.3370  0.00  0.00     0.000 O
BRANCH 23 27
ATOM     24  C1  IDS B   2      27.870  19.773  27.4810  0.00  0.00     0.000 C
ATOM     25  C2  IDS B   2      28.484  18.831  28.5410  0.00  0.00     0.000 C
ATOM     26  C3  IDS B   2      27.675  18.864  29.8340  0.00  0.00     0.000 C
ATOM     27  C4  IDS B   2      27.492  20.265  30.4010  0.00  0.00     0.000 C
ATOM     28  C5  IDS B   2      27.298  21.276  29.2540  0.00  0.00     0.000 C
ATOM     29  O5  IDS B   2      26.875  20.623  28.0670  0.00  0.00     0.000 O
ATOM     30   O  IDS B   2      28.340  18.084  30.8220  0.00  0.00     0.000 O
ATOM     32  HD  IDS B   2      29.005  18.497  31.1920  0.00  0.00     0.000 HD
BRANCH 25 32
ATOM     32   O  IDS B   2      28.534  17.423  28.0780  0.00  0.00     0.000 O
ATOM     33   S  IDS B   2      29.952  16.584  27.9880  0.00  0.00     0.000 S
ATOM     34   O  IDS B   2      29.647  15.344  27.2930  0.00  0.00     0.000 OA
ATOM     35   O  IDS B   2      30.936  17.374  27.2600  0.00  0.00     0.000 OA
ATOM     36   O  IDS B   2      30.347  16.337  29.3560  0.00  0.00     0.000 OA
ENDBRANCH 25 32
BRANCH 28 37
ATOM     37   C  IDS B   2      26.367  22.480  29.5030  0.00  0.00     0.000 C
ATOM     38   O  IDS B   2      25.485  22.568  28.6810  0.00  0.00     0.000 OA
ATOM     39   O  IDS B   2      26.412  23.283  30.4680  0.00  0.00     0.000 OA
ENDBRANCH 28 37
BRANCH 24 40
ATOM     40  O4  SUS B   3      28.482  19.935  26.2900  0.00  0.00     0.000 O
BRANCH 40 44
ATOM     41  C1  SUS B   3      26.909  20.978  22.5500  0.00  0.00     0.000 C
ATOM     42  C2  SUS B   3      26.960  22.081  23.6260  0.00  0.00     0.000 C
ATOM     43  C3  SUS B   3      27.965  21.685  24.7060  0.00  0.00     0.000 C
ATOM     44  C4  SUS B   3      27.593  20.313  25.2450  0.00  0.00     0.000 C
ATOM     45  C5  SUS B   3      27.669  19.306  24.1150  0.00  0.00     0.000 C
ATOM     46  O5  SUS B   3      26.700  19.679  23.1140  0.00  0.00     0.000 O
BRANCH 42 49
ATOM     47   N  SUS B   3      27.194  23.344  22.9060  0.00  0.00     0.000 N
ATOM     49  HD  SUS B   3      27.903  23.790  23.1260  0.00  0.00     0.000 HD
ATOM     49   S  SUS B   3      25.939  24.338  22.9760  0.00  0.00     0.000 S
ATOM     50   O  SUS B   3      25.620  24.612  24.3220  0.00  0.00     0.000 OA
ATOM     51   O  SUS B   3      26.638  25.556  22.3210  0.00  0.00     0.000 OA
ATOM     52   O  SUS B   3      24.909  23.849  22.1480  0.00  0.00     0.000 OA
ENDBRANCH 42 49
BRANCH 43 53
ATOM     53   O  SUS B   3      27.889  22.687  25.7870  0.00  0.00     0.000 O
ATOM     54   S  SUS B   3      29.201  23.652  26.0090  0.00  0.00     0.000 S
ATOM     55   O  SUS B   3      29.259  24.574  24.8830  0.00  0.00     0.000 OA
ATOM     56   O  SUS B   3      28.950  24.299  27.2840  0.00  0.00     0.000 OA
ATOM     57   O  SUS B   3      30.369  22.766  26.0300  0.00  0.00     0.000 OA
ENDBRANCH 43 53
BRANCH 45 58
ATOM     58   C  SUS B   3      27.408  17.895  24.5960  0.00  0.00     0.000 C
ATOM     59   S  SUS B   3      25.542  16.343  25.4300  0.00  0.00     0.000 S
ATOM     60   O  SUS B   3      25.992  17.692  24.7310  0.00  0.00     0.000 O
ATOM     61   O  SUS B   3      25.745  16.565  26.8490  0.00  0.00     0.000 OA
ATOM     62   O  SUS B   3      24.151  16.305  25.0670  0.00  0.00     0.000 OA
ATOM     63   O  SUS B   3      26.349  15.328  24.8520  0.00  0.00     0.000 OA
ENDBRANCH 45 58
BRANCH 41 64
ATOM     64  O4  IDS B   4      27.941  21.039  21.6460  0.00  0.00     0.000 O
BRANCH 64 68
ATOM     65  C1  IDS B   4      29.814  20.928  18.5230  0.00  0.00     0.000 C
ATOM     66  C2  IDS B   4      29.046  22.195  18.9180  0.00  0.00     0.000 C
ATOM     67  C3  IDS B   4      27.629  21.944  19.4080  0.00  0.00     0.000 C
ATOM     68  C4  IDS B   4      27.522  20.722  20.3000  0.00  0.00     0.000 C
ATOM     69  C5  IDS B   4      28.333  19.589  19.6590  0.00  0.00     0.000 C
ATOM     70  O5  IDS B   4      29.705  19.983  19.5720  0.00  0.00     0.000 O
ATOM     71   O  IDS B   4      26.815  21.774  18.2660  0.00  0.00     0.000 O
ATOM     73  HD  IDS B   4      27.523  22.023  18.6980  0.00  0.00     0.000 HD
BRANCH 66 73
ATOM     73   O  IDS B   4      29.740  22.838  20.0430  0.00  0.00     0.000 O
ATOM     74   S  IDS B   4      30.408  24.289  19.7910  0.00  0.00     0.000 S
ATOM     75   O  IDS B   4      31.323  24.132  18.6810  0.00  0.00     0.000 OA
ATOM     76   O  IDS B   4      31.056  24.540  21.0540  0.00  0.00     0.000 OA
ATOM     77   O  IDS B   4      29.307  25.176  19.5030  0.00  0.00     0.000 OA
ENDBRANCH 66 73
BRANCH 69 78
ATOM     78   C  IDS B   4      28.147  18.230  20.3190  0.00  0.00     0.000 C
ATOM     79   O  IDS B   4      27.372  17.424  19.8050  0.00  0.00     0.000 OA
ATOM     80   O  IDS B   4      28.863  17.938  21.2950  0.00  0.00     0.000 OA
ENDBRANCH 69 78
BRANCH 65 81
ATOM     81  O4  SGN B   5      29.411  20.521  17.2870  0.00  0.00     0.000 O
BRANCH 81 85
ATOM     82  C1  SGN B   5      30.675  18.506  13.8250  0.00  0.00     0.000 C
ATOM     83  C2  SGN B   5      30.222  17.640  15.0110  0.00  0.00     0.000 C
ATOM     84  C3  SGN B   5      29.380  18.489  15.9740  0.00  0.00     0.000 C
ATOM     85  C4  SGN B   5      30.179  19.709  16.3960  0.00  0.00     0.000 C
ATOM     86  C5  SGN B   5      30.550  20.497  15.1430  0.00  0.00     0.000 C
ATOM     87  O5  SGN B   5      31.352  19.658  14.2900  0.00  0.00     0.000 O
ATOM     88   O  SGN B   5      29.008  17.715  17.0940  0.00  0.00     0.000 O
ATOM     90  HD  SGN B   5      28.495  17.906  16.4220  0.00  0.00     0.000 HD
BRANCH 83 92
ATOM     90   N  SGN B   5      31.061  16.505  14.5800  0.00  0.00     0.000 N
ATOM     92  HD  SGN B   5      31.805  16.484  15.0220  0.00  0.00     0.000 HD
ATOM     92   S  SGN B   5      30.356  15.086  14.3720  0.00  0.00     0.000 S
ATOM     93   O  SGN B   5      31.420  14.217  13.9700  0.00  0.00     0.000 OA
ATOM     94   O  SGN B   5      29.642  14.830  15.5760  0.00  0.00     0.000 OA
ATOM     95   O  SGN B   5      29.333  15.321  13.2820  0.00  0.00     0.000 OA
ENDBRANCH 83 92
BRANCH 86 96
ATOM     96   C  SGN B   5      31.346  21.757  15.4150  0.00  0.00     0.000 C
ATOM     97   O  SGN B   5      32.462  21.473  16.2620  0.00  0.00     0.000 O
ATOM     98   S  SGN B   5      33.887  22.005  15.7540  0.00  0.00     0.000 S
ATOM     99   O  SGN B   5      34.743  21.752  16.8890  0.00  0.00     0.000 OA
ATOM    100   O  SGN B   5      34.222  21.274  14.5850  0.00  0.00     0.000 OA
ATOM    101   O  SGN B   5      33.678  23.393  15.5010  0.00  0.00     0.000 OA
ENDBRANCH 86 96
BRANCH 82 102
ATOM    102  O4  IDS B   6      29.642  18.860  13.0090  0.00  0.00     0.000 O
BRANCH 102 106
ATOM    103  C1  IDS B   6      27.784  19.020   9.8820  0.00  0.00     0.000 C
ATOM    104  C2  IDS B   6      28.334  17.683  10.4020  0.00  0.00     0.000 C
ATOM    105  C3  IDS B   6      29.778  17.717  10.8630  0.00  0.00     0.000 C
ATOM    106  C4  IDS B   6      30.115  18.976  11.6430  0.00  0.00     0.000 C
ATOM    107  C5  IDS B   6      29.492  20.194  10.9530  0.00  0.00     0.000 C
ATOM    108  O5  IDS B   6      28.079  20.055  10.8000  0.00  0.00     0.000 O
ATOM    109   O  IDS B   6      30.609  17.596   9.7200  0.00  0.00     0.000 O
ATOM    111  HD  IDS B   6      30.107  17.864   9.0680  0.00  0.00     0.000 HD
BRANCH 104 111
ATOM    111   O  IDS B   6      27.559  17.272  11.5820  0.00  0.00     0.000 O
ATOM    112   S  IDS B   6      26.381  16.207  11.3770  0.00  0.00     0.000 S
ATOM    113   O  IDS B   6      25.488  16.832  10.4140  0.00  0.00     0.000 OA
ATOM    114   O  IDS B   6      26.972  14.940  10.9330  0.00  0.00     0.000 OA
ATOM    115   O  IDS B   6      25.859  16.173  12.7260  0.00  0.00     0.000 OA
ENDBRANCH 104 111
BRANCH 107 116
ATOM    116   C  IDS B   6      29.805  21.446  11.7630  0.00  0.00     0.000 C
ATOM    117   O  IDS B   6      30.955  21.806  11.7820  0.00  0.00     0.000 OA
ATOM    118   O  IDS B   6      28.931  22.045  12.3680  0.00  0.00     0.000 OA
ENDBRANCH 107 116
BRANCH 103 119
ATOM    119  O4  SGN B   7      28.220  19.070   8.5970  0.00  0.00     0.000 O
BRANCH 119 123
ATOM    120  C1  SGN B   7      26.942  20.954   5.0890  0.00  0.00     0.000 C
ATOM    121  C2  SGN B   7      28.002  21.676   5.9420  0.00  0.00     0.000 C
ATOM    122  C3  SGN B   7      28.644  20.704   6.9400  0.00  0.00     0.000 C
ATOM    123  C4  SGN B   7      27.562  20.017   7.7560  0.00  0.00     0.000 C
ATOM    124  C5  SGN B   7      26.554  19.334   6.8170  0.00  0.00     0.000 C
ATOM    125  O5  SGN B   7      25.974  20.286   5.8970  0.00  0.00     0.000 O
ATOM    126   O  SGN B   7      29.550  21.429   7.7790  0.00  0.00     0.000 O
ATOM    128  HD  SGN B   7      29.043  21.422   7.0760  0.00  0.00     0.000 HD
BRANCH 121 130
ATOM    128   N  SGN B   7      28.600  22.287   4.7520  0.00  0.00     0.000 N
ATOM    130  HD  SGN B   7      27.855  22.692   4.5760  0.00  0.00     0.000 HD
ATOM    130   S  SGN B   7      28.991  23.848   4.6920  0.00  0.00     0.000 S
ATOM    131   O  SGN B   7      29.757  24.086   5.8670  0.00  0.00     0.000 OA
ATOM    132   O  SGN B   7      29.537  24.123   3.4120  0.00  0.00     0.000 OA
ATOM    133   O  SGN B   7      27.564  24.494   4.6600  0.00  0.00     0.000 OA
ENDBRANCH 121 130
BRANCH 124 134
ATOM    134   C  SGN B   7      25.381  18.724   7.5270  0.00  0.00     0.000 C
ATOM    135   O  SGN B   7      24.199  18.957   6.7420  0.00  0.00     0.000 O
ATOM    136   S  SGN B   7      22.881  18.262   7.2380  0.00  0.00     0.000 S
ATOM    137   O  SGN B   7      21.826  18.722   6.3660  0.00  0.00     0.000 OA
ATOM    138   O  SGN B   7      22.714  18.700   8.6060  0.00  0.00     0.000 OA
ATOM    139   O  SGN B   7      23.197  16.850   7.0920  0.00  0.00     0.000 OA
ENDBRANCH 124 134
BRANCH 120 140
ATOM    140  O4  IDS B   8      27.135  20.004   4.1670  0.00  0.00     0.000 O
BRANCH 140 144
ATOM    141  C1  IDS B   8      28.615  17.719   1.8120  0.00  0.00     0.000 C
ATOM    142  C2  IDS B   8      29.068  19.206   1.8760  0.00  0.00     0.000 C
ATOM    143  C3  IDS B   8      27.888  20.196   1.8770  0.00  0.00     0.000 C
ATOM    144  C4  IDS B   8      26.763  19.746   2.8070  0.00  0.00     0.000 C
ATOM    145  C5  IDS B   8      26.481  18.248   2.6120  0.00  0.00     0.000 C
ATOM    146  O5  IDS B   8      27.650  17.461   2.8240  0.00  0.00     0.000 O
BRANCH 142 147
ATOM    147   O  IDS B   8      29.836  19.437   3.1270  0.00  0.00     0.000 O
ATOM    148   S  IDS B   8      31.384  19.920   3.0810  0.00  0.00     0.000 S
ATOM    149   O  IDS B   8      31.878  19.679   1.7440  0.00  0.00     0.000 OA
ATOM    150   O  IDS B   8      31.360  21.330   3.4240  0.00  0.00     0.000 OA
ATOM    151   O  IDS B   8      32.068  19.105   4.0660  0.00  0.00     0.000 OA
ENDBRANCH 142 147
BRANCH 145 152
ATOM    152   C  IDS B   8      25.441  17.720   3.5790  0.00  0.00     0.000 C
ATOM    153   O  IDS B   8      25.767  16.895   4.4260  0.00  0.00     0.000 OA
ATOM    154   O  IDS B   8      24.298  18.135   3.5190  0.00  0.00     0.000 OA
ENDBRANCH 145 152
ENDBRANCH 140 144
ENDBRANCH 120 140
ENDBRANCH 119 123
ENDBRANCH 103 119
ENDBRANCH 102 106
ENDBRANCH 82 102
ENDBRANCH 81 85
ENDBRANCH 65 81
ENDBRANCH 64 68
ENDBRANCH 41 64
ENDBRANCH 40 44
ENDBRANCH 24 40
ENDBRANCH 23 27
ENDBRANCH 1 23
TORSDOF 31
ENDMDL
MODEL 39
REMARK VINA RESULT:      -7.1      7.026     19.263
ROOT
ATOM      1  C1  SGN B   1      26.128  19.322  30.5300  0.00  0.00     0.000 C
ATOM      2  C2  SGN B   1      24.690  18.879  30.8450  0.00  0.00     0.000 C
ATOM      3  C3  SGN B   1      23.802  18.994  29.6010  0.00  0.00     0.000 C
ATOM      4  C4  SGN B   1      23.853  20.414  29.0470  0.00  0.00     0.000 C
ATOM      5  C5  SGN B   1      25.312  20.838  28.8940  0.00  0.00     0.000 C
ATOM      6  O5  SGN B   1      25.993  20.686  30.1540  0.00  0.00     0.000 O
ATOM      7   O  SGN B   1      22.462  18.626  29.9070  0.00  0.00     0.000 O
ATOM      9  HD  SGN B   1      22.583  19.303  30.4330  0.00  0.00     0.000 HD
ATOM      9   O  SGN B   1      23.198  20.454  27.7930  0.00  0.00     0.000 O
ATOM     11  HD  SGN B   1      23.319  21.131  28.3180  0.00  0.00     0.000 HD
ENDROOT
BRANCH 2 13
ATOM     11   N  SGN B   1      24.732  18.488  32.2670  0.00  0.00     0.000 N
ATOM     13  HD  SGN B   1      25.323  18.187  31.7100  0.00  0.00     0.000 HD
ATOM     13   S  SGN B   1      25.347  17.083  32.7540  0.00  0.00     0.000 S
ATOM     14   O  SGN B   1      25.854  16.366  31.6500  0.00  0.00     0.000 OA
ATOM     15   O  SGN B   1      26.188  17.325  33.8780  0.00  0.00     0.000 OA
ATOM     16   O  SGN B   1      24.032  16.439  33.2930  0.00  0.00     0.000 OA
ENDBRANCH 2 13
BRANCH 5 17
ATOM     17   C  SGN B   1      25.493  22.270  28.4550  0.00  0.00     0.000 C
ATOM     18   O  SGN B   1      24.568  23.138  29.1390  0.00  0.00     0.000 O
ATOM     19   S  SGN B   1      23.813  24.215  28.2290  0.00  0.00     0.000 S
ATOM     20   O  SGN B   1      23.144  25.094  29.1650  0.00  0.00     0.000 OA
ATOM     21   O  SGN B   1      24.874  24.858  27.4890  0.00  0.00     0.000 OA
ATOM     22   O  SGN B   1      22.906  23.445  27.4070  0.00  0.00     0.000 OA
ENDBRANCH 5 17
BRANCH 1 23
ATOM     23  O4  IDS B   2      27.315  18.814  30.0900  0.00  0.00     0.000 O
BRANCH 23 27
ATOM     24  C1  IDS B   2      27.598  18.359  25.9740  0.00  0.00     0.000 C
ATOM     25  C2  IDS B   2      26.981  17.166  26.7360  0.00  0.00     0.000 C
ATOM     26  C3  IDS B   2      26.652  17.549  28.1760  0.00  0.00     0.000 C
ATOM     27  C4  IDS B   2      27.840  18.118  28.9400  0.00  0.00     0.000 C
ATOM     28  C5  IDS B   2      28.698  18.993  28.0030  0.00  0.00     0.000 C
ATOM     29  O5  IDS B   2      27.946  19.418  26.8760  0.00  0.00     0.000 O
ATOM     30   O  IDS B   2      26.204  16.395  28.8770  0.00  0.00     0.000 O
ATOM     32  HD  IDS B   2      26.850  15.877  29.1310  0.00  0.00     0.000 HD
BRANCH 25 32
ATOM     32   O  IDS B   2      25.728  16.683  26.1030  0.00  0.00     0.000 O
ATOM     33   S  IDS B   2      25.685  15.306  25.1960  0.00  0.00     0.000 S
ATOM     34   O  IDS B   2      24.374  15.277  24.5660  0.00  0.00     0.000 OA
ATOM     35   O  IDS B   2      26.750  15.345  24.2050  0.00  0.00     0.000 OA
ATOM     36   O  IDS B   2      25.843  14.217  26.1320  0.00  0.00     0.000 OA
ENDBRANCH 25 32
BRANCH 28 37
ATOM     37   C  IDS B   2      29.400  20.225  28.6110  0.00  0.00     0.000 C
ATOM     38   O  IDS B   2      30.271  19.928  29.3940  0.00  0.00     0.000 OA
ATOM     39   O  IDS B   2      29.194  21.429  28.3230  0.00  0.00     0.000 OA
ENDBRANCH 28 37
BRANCH 24 40
ATOM     40  O4  SUS B   3      28.020  18.199  24.7020  0.00  0.00     0.000 O
BRANCH 40 44
ATOM     41  C1  SUS B   3      28.011  20.883  21.4860  0.00  0.00     0.000 C
ATOM     42  C2  SUS B   3      29.066  21.107  22.5880  0.00  0.00     0.000 C
ATOM     43  C3  SUS B   3      29.242  19.816  23.3860  0.00  0.00     0.000 C
ATOM     44  C4  SUS B   3      27.885  19.374  23.9100  0.00  0.00     0.000 C
ATOM     45  C5  SUS B   3      26.970  19.099  22.7340  0.00  0.00     0.000 C
ATOM     46  O5  SUS B   3      26.796  20.329  22.0030  0.00  0.00     0.000 O
BRANCH 42 49
ATOM     47   N  SUS B   3      30.187  21.695  21.8350  0.00  0.00     0.000 N
ATOM     49  HD  SUS B   3      30.919  21.234  21.8070  0.00  0.00     0.000 HD
ATOM     49   S  SUS B   3      30.550  23.176  22.3250  0.00  0.00     0.000 S
ATOM     50   O  SUS B   3      30.858  23.165  23.7000  0.00  0.00     0.000 OA
ATOM     51   O  SUS B   3      31.839  23.335  21.4770  0.00  0.00     0.000 OA
ATOM     52   O  SUS B   3      29.554  24.071  21.8870  0.00  0.00     0.000 OA
ENDBRANCH 42 49
BRANCH 43 53
ATOM     53   O  SUS B   3      30.148  20.100  24.5160  0.00  0.00     0.000 O
ATOM     54   S  SUS B   3      31.646  19.424  24.4630  0.00  0.00     0.000 S
ATOM     55   O  SUS B   3      32.398  20.112  23.4230  0.00  0.00     0.000 OA
ATOM     56   O  SUS B   3      32.172  19.630  25.8000  0.00  0.00     0.000 OA
ATOM     57   O  SUS B   3      31.451  18.010  24.1300  0.00  0.00     0.000 OA
ENDBRANCH 43 53
BRANCH 45 58
ATOM     58   C  SUS B   3      25.628  18.557  23.1740  0.00  0.00     0.000 C
ATOM     59   S  SUS B   3      23.377  19.271  24.1770  0.00  0.00     0.000 S
ATOM     60   O  SUS B   3      24.753  19.652  23.4920  0.00  0.00     0.000 O
ATOM     61   O  SUS B   3      23.705  19.002  25.5640  0.00  0.00     0.000 OA
ATOM     62   O  SUS B   3      22.645  20.498  24.0070  0.00  0.00     0.000 OA
ATOM     63   O  SUS B   3      22.881  18.161  23.4430  0.00  0.00     0.000 OA
ENDBRANCH 45 58
BRANCH 41 64
ATOM     64  O4  IDS B   4      28.498  20.235  20.3780  0.00  0.00     0.000 O
BRANCH 64 68
ATOM     65  C1  IDS B   4      28.960  19.196  16.9160  0.00  0.00     0.000 C
ATOM     66  C2  IDS B   4      29.381  20.602  17.3640  0.00  0.00     0.000 C
ATOM     67  C3  IDS B   4      28.347  21.328  18.2070  0.00  0.00     0.000 C
ATOM     68  C4  IDS B   4      27.664  20.420  19.2130  0.00  0.00     0.000 C
ATOM     69  C5  IDS B   4      27.303  19.108  18.5040  0.00  0.00     0.000 C
ATOM     70  O5  IDS B   4      28.501  18.476  18.0460  0.00  0.00     0.000 O
ATOM     71   O  IDS B   4      27.388  21.868  17.3220  0.00  0.00     0.000 O
ATOM     73  HD  IDS B   4      28.153  21.528  17.5420  0.00  0.00     0.000 HD
BRANCH 66 73
ATOM     73   O  IDS B   4      30.573  20.489  18.2160  0.00  0.00     0.000 O
ATOM     74   S  IDS B   4      31.937  21.196  17.7090  0.00  0.00     0.000 S
ATOM     75   O  IDS B   4      32.221  20.647  16.4010  0.00  0.00     0.000 OA
ATOM     76   O  IDS B   4      32.873  20.798  18.7290  0.00  0.00     0.000 OA
ATOM     77   O  IDS B   4      31.651  22.611  17.6840  0.00  0.00     0.000 OA
ENDBRANCH 66 73
BRANCH 69 78
ATOM     78   C  IDS B   4      26.416  18.176  19.3180  0.00  0.00     0.000 C
ATOM     79   O  IDS B   4      26.924  17.188  19.8460  0.00  0.00     0.000 OA
ATOM     80   O  IDS B   4      25.229  18.500  19.5100  0.00  0.00     0.000 OA
ENDBRANCH 69 78
BRANCH 65 81
ATOM     81  O4  SGN B   5      28.103  19.294  15.8620  0.00  0.00     0.000 O
BRANCH 81 85
ATOM     82  C1  SGN B   5      26.078  17.027  12.9640  0.00  0.00     0.000 C
ATOM     83  C2  SGN B   5      25.388  17.196  14.3260  0.00  0.00     0.000 C
ATOM     84  C3  SGN B   5      26.003  18.389  15.0690  0.00  0.00     0.000 C
ATOM     85  C4  SGN B   5      27.505  18.189  15.1810  0.00  0.00     0.000 C
ATOM     86  C5  SGN B   5      28.077  18.059  13.7720  0.00  0.00     0.000 C
ATOM     87  O5  SGN B   5      27.478  16.915  13.1340  0.00  0.00     0.000 O
ATOM     88   O  SGN B   5      25.414  18.515  16.3450  0.00  0.00     0.000 O
ATOM     90  HD  SGN B   5      25.223  19.000  15.6530  0.00  0.00     0.000 HD
BRANCH 83 92
ATOM     90   N  SGN B   5      24.605  15.996  13.9690  0.00  0.00     0.000 N
ATOM     92  HD  SGN B   5      25.031  15.273  14.1820  0.00  0.00     0.000 HD
ATOM     92   S  SGN B   5      23.044  15.989  14.3110  0.00  0.00     0.000 S
ATOM     93   O  SGN B   5      22.587  14.711  13.8540  0.00  0.00     0.000 OA
ATOM     94   O  SGN B   5      22.949  16.329  15.6890  0.00  0.00     0.000 OA
ATOM     95   O  SGN B   5      22.471  17.145  13.5200  0.00  0.00     0.000 OA
ENDBRANCH 83 92
BRANCH 86 96
ATOM     96   C  SGN B   5      29.579  17.865  13.7280  0.00  0.00     0.000 C
ATOM     97   O  SGN B   5      29.936  16.587  14.2580  0.00  0.00     0.000 O
ATOM     98   S  SGN B   5      30.903  15.689  13.3460  0.00  0.00     0.000 S
ATOM     99   O  SGN B   5      31.234  14.589  14.2200  0.00  0.00     0.000 OA
ATOM    100   O  SGN B   5      30.174  15.323  12.1850  0.00  0.00     0.000 OA
ATOM    101   O  SGN B   5      32.013  16.539  13.0620  0.00  0.00     0.000 OA
ENDBRANCH 86 96
BRANCH 82 102
ATOM    102  O4  IDS B   6      25.784  18.039  12.0990  0.00  0.00     0.000 O
BRANCH 102 106
ATOM    103  C1  IDS B   6      24.431  19.589   9.0950  0.00  0.00     0.000 C
ATOM    104  C2  IDS B   6      23.545  18.712   9.9940  0.00  0.00     0.000 C
ATOM    105  C3  IDS B   6      24.160  17.388  10.4060  0.00  0.00     0.000 C
ATOM    106  C4  IDS B   6      25.632  17.509  10.7570  0.00  0.00     0.000 C
ATOM    107  C5  IDS B   6      26.336  18.404   9.7340  0.00  0.00     0.000 C
ATOM    108  O5  IDS B   6      25.729  19.694   9.6470  0.00  0.00     0.000 O
ATOM    109   O  IDS B   6      23.969  16.464   9.3460  0.00  0.00     0.000 O
ATOM    111  HD  IDS B   6      23.863  16.966   8.6490  0.00  0.00     0.000 HD
BRANCH 104 111
ATOM    111   O  IDS B   6      23.283  19.426  11.2520  0.00  0.00     0.000 O
ATOM    112   S  IDS B   6      21.827  20.054  11.4720  0.00  0.00     0.000 S
ATOM    113   O  IDS B   6      21.652  20.972  10.3570  0.00  0.00     0.000 OA
ATOM    114   O  IDS B   6      20.852  18.959  11.5240  0.00  0.00     0.000 OA
ATOM    115   O  IDS B   6      22.045  20.710  12.7440  0.00  0.00     0.000 OA
ENDBRANCH 104 111
BRANCH 107 116
ATOM    116   C  IDS B   6      27.804  18.548  10.1160  0.00  0.00     0.000 C
ATOM    117   O  IDS B   6      28.188  19.659  10.3810  0.00  0.00     0.000 OA
ATOM    118   O  IDS B   6      28.551  17.583  10.1420  0.00  0.00     0.000 OA
ENDBRANCH 107 116
BRANCH 103 119
ATOM    119  O4  SGN B   7      24.231  19.080   7.8520  0.00  0.00     0.000 O
BRANCH 119 123
ATOM    120  C1  SGN B   7      24.948  20.392   3.9460  0.00  0.00     0.000 C
ATOM    121  C2  SGN B   7      26.024  19.515   4.6130  0.00  0.00     0.000 C
ATOM    122  C3  SGN B   7      25.450  18.800   5.8430  0.00  0.00     0.000 C
ATOM    123  C4  SGN B   7      24.818  19.817   6.7790  0.00  0.00     0.000 C
ATOM    124  C5  SGN B   7      23.767  20.643   6.0200  0.00  0.00     0.000 C
ATOM    125  O5  SGN B   7      24.351  21.298   4.8720  0.00  0.00     0.000 O
ATOM    126   O  SGN B   7      26.500  18.074   6.4930  0.00  0.00     0.000 O
ATOM    128  HD  SGN B   7      26.235  18.525   5.8030  0.00  0.00     0.000 HD
BRANCH 121 130
ATOM    128   N  SGN B   7      26.485  19.352   3.2320  0.00  0.00     0.000 N
ATOM    130  HD  SGN B   7      27.010  20.035   3.3190  0.00  0.00     0.000 HD
ATOM    130   S  SGN B   7      27.951  18.787   2.8760  0.00  0.00     0.000 S
ATOM    131   O  SGN B   7      28.084  17.592   3.6360  0.00  0.00     0.000 OA
ATOM    132   O  SGN B   7      28.087  18.759   1.4650  0.00  0.00     0.000 OA
ATOM    133   O  SGN B   7      28.836  19.995   3.3350  0.00  0.00     0.000 OA
ENDBRANCH 121 130
BRANCH 124 134
ATOM    134   C  SGN B   7      23.167  21.754   6.8310  0.00  0.00     0.000 C
ATOM    135   O  SGN B   7      24.198  22.708   7.1350  0.00  0.00     0.000 O
ATOM    136   S  SGN B   7      23.741  24.029   7.8510  0.00  0.00     0.000 S
ATOM    137   O  SGN B   7      24.945  24.770   8.1430  0.00  0.00     0.000 OA
ATOM    138   O  SGN B   7      23.044  23.594   9.0390  0.00  0.00     0.000 OA
ATOM    139   O  SGN B   7      22.892  24.651   6.8470  0.00  0.00     0.000 OA
ENDBRANCH 124 134
BRANCH 120 140
ATOM    140  O4  IDS B   8      23.845  19.994   3.3030  0.00  0.00     0.000 O
BRANCH 140 144
ATOM    141  C1  IDS B   8      20.699  19.471   1.6310  0.00  0.00     0.000 C
ATOM    142  C2  IDS B   8      20.847  19.211   3.1580  0.00  0.00     0.000 C
ATOM    143  C3  IDS B   8      22.078  18.355   3.5080  0.00  0.00     0.000 C
ATOM    144  C4  IDS B   8      23.319  18.791   2.7300  0.00  0.00     0.000 C
ATOM    145  C5  IDS B   8      22.964  19.021   1.2530  0.00  0.00     0.000 C
ATOM    146  O5  IDS B   8      21.919  19.979   1.1050  0.00  0.00     0.000 O
BRANCH 142 147
ATOM    147   O  IDS B   8      20.996  20.508   3.8700  0.00  0.00     0.000 O
ATOM    148   S  IDS B   8      19.730  21.209   4.6030  0.00  0.00     0.000 S
ATOM    149   O  IDS B   8      18.529  20.585   4.0960  0.00  0.00     0.000 OA
ATOM    150   O  IDS B   8      19.928  20.976   6.0220  0.00  0.00     0.000 OA
ATOM    151   O  IDS B   8      19.807  22.611   4.2410  0.00  0.00     0.000 OA
ENDBRANCH 142 147
BRANCH 145 152
ATOM    152   C  IDS B   8      24.133  19.551   0.4480  0.00  0.00     0.000 C
ATOM    153   O  IDS B   8      24.077  20.679  -0.0280  0.00  0.00     0.000 OA
ATOM    154   O  IDS B   8      25.124  18.859   0.2990  0.00  0.00     0.000 OA
ENDBRANCH 145 152
ENDBRANCH 140 144
ENDBRANCH 120 140
ENDBRANCH 119 123
ENDBRANCH 103 119
ENDBRANCH 102 106
ENDBRANCH 82 102
ENDBRANCH 81 85
ENDBRANCH 65 81
ENDBRANCH 64 68
ENDBRANCH 41 64
ENDBRANCH 40 44
ENDBRANCH 24 40
ENDBRANCH 23 27
ENDBRANCH 1 23
TORSDOF 31
ENDMDL
MODEL 40
REMARK VINA RESULT:      -7.1     10.961     14.798
ROOT
ATOM      1  C1  SGN B   1      23.838  16.588  17.5270  0.00  0.00     0.000 C
ATOM      2  C2  SGN B   1      22.825  15.508  17.1120  0.00  0.00     0.000 C
ATOM      3  C3  SGN B   1      23.533  14.334  16.4270  0.00  0.00     0.000 C
ATOM      4  C4  SGN B   1      24.352  14.833  15.2410  0.00  0.00     0.000 C
ATOM      5  C5  SGN B   1      25.230  15.997  15.6960  0.00  0.00     0.000 C
ATOM      6  O5  SGN B   1      24.407  17.015  16.2970  0.00  0.00     0.000 O
ATOM      7   O  SGN B   1      22.588  13.358  16.0050  0.00  0.00     0.000 O
ATOM      9  HD  SGN B   1      22.337  14.053  15.5530  0.00  0.00     0.000 HD
ATOM      9   O  SGN B   1      25.156  13.778  14.7480  0.00  0.00     0.000 O
ATOM     11  HD  SGN B   1      24.906  14.473  14.2950  0.00  0.00     0.000 HD
ENDROOT
BRANCH 2 13
ATOM     11   N  SGN B   1      21.952  15.000  18.1870  0.00  0.00     0.000 N
ATOM     13  HD  SGN B   1      21.761  15.739  17.7780  0.00  0.00     0.000 HD
ATOM     13   S  SGN B   1      21.063  15.977  19.1060  0.00  0.00     0.000 S
ATOM     14   O  SGN B   1      21.220  17.314  18.6870  0.00  0.00     0.000 OA
ATOM     15   O  SGN B   1      19.753  15.426  19.2130  0.00  0.00     0.000 OA
ATOM     16   O  SGN B   1      21.783  15.720  20.4660  0.00  0.00     0.000 OA
ENDBRANCH 2 13
BRANCH 5 17
ATOM     17   C  SGN B   1      26.011  16.649  14.5820  0.00  0.00     0.000 C
ATOM     18   O  SGN B   1      25.194  16.805  13.4040  0.00  0.00     0.000 O
ATOM     19   S  SGN B   1      25.876  16.390  12.0180  0.00  0.00     0.000 S
ATOM     20   O  SGN B   1      24.961  16.853  10.9970  0.00  0.00     0.000 OA
ATOM     21   O  SGN B   1      27.140  17.089  12.0240  0.00  0.00     0.000 OA
ATOM     22   O  SGN B   1      26.000  14.950  12.0750  0.00  0.00     0.000 OA
ENDBRANCH 5 17
BRANCH 1 23
ATOM     23  O4  IDS B   2      24.635  16.937  18.5770  0.00  0.00     0.000 O
BRANCH 23 27
ATOM     24  C1  IDS B   2      26.441  18.702  21.8710  0.00  0.00     0.000 C
ATOM     25  C2  IDS B   2      24.913  18.902  21.7620  0.00  0.00     0.000 C
ATOM     26  C3  IDS B   2      24.317  17.979  20.7020  0.00  0.00     0.000 C
ATOM     27  C4  IDS B   2      24.977  18.115  19.3370  0.00  0.00     0.000 C
ATOM     28  C5  IDS B   2      26.492  18.347  19.5050  0.00  0.00     0.000 C
ATOM     29  O5  IDS B   2      26.934  17.911  20.7820  0.00  0.00     0.000 O
ATOM     30   O  IDS B   2      22.935  18.279  20.5430  0.00  0.00     0.000 O
ATOM     32  HD  IDS B   2      22.792  18.981  20.0560  0.00  0.00     0.000 HD
BRANCH 25 32
ATOM     32   O  IDS B   2      24.217  18.623  23.0420  0.00  0.00     0.000 O
ATOM     33   S  IDS B   2      23.315  19.771  23.8110  0.00  0.00     0.000 S
ATOM     34   O  IDS B   2      22.985  19.219  25.1160  0.00  0.00     0.000 OA
ATOM     35   O  IDS B   2      24.092  20.996  23.9330  0.00  0.00     0.000 OA
ATOM     36   O  IDS B   2      22.133  19.946  23.0000  0.00  0.00     0.000 OA
ENDBRANCH 25 32
BRANCH 28 37
ATOM     37   C  IDS B   2      27.435  17.754  18.4380  0.00  0.00     0.000 C
ATOM     38   O  IDS B   2      28.106  16.843  18.8610  0.00  0.00     0.000 OA
ATOM     39   O  IDS B   2      27.506  18.081  17.2280  0.00  0.00     0.000 OA
ENDBRANCH 28 37
BRANCH 24 40
ATOM     40  O4  SUS B   3      27.162  19.477  22.7080  0.00  0.00     0.000 O
BRANCH 40 44
ATOM     41  C1  SUS B   3      30.303  18.102  25.1140  0.00  0.00     0.000 C
ATOM     42  C2  SUS B   3      30.628  19.217  24.1000  0.00  0.00     0.000 C
ATOM     43  C3  SUS B   3      29.332  19.908  23.6800  0.00  0.00     0.000 C
ATOM     44  C4  SUS B   3      28.363  18.859  23.1560  0.00  0.00     0.000 C
ATOM     45  C5  SUS B   3      28.054  17.879  24.2690  0.00  0.00     0.000 C
ATOM     46  O5  SUS B   3      29.281  17.218  24.6410  0.00  0.00     0.000 O
BRANCH 42 49
ATOM     47   N  SUS B   3      32.019  18.742  24.0060  0.00  0.00     0.000 N
ATOM     49  HD  SUS B   3      32.276  18.174  24.6070  0.00  0.00     0.000 HD
ATOM     49   S  SUS B   3      33.080  19.942  23.9690  0.00  0.00     0.000 S
ATOM     50   O  SUS B   3      32.932  20.749  25.1160  0.00  0.00     0.000 OA
ATOM     51   O  SUS B   3      34.351  19.061  24.0820  0.00  0.00     0.000 OA
ATOM     52   O  SUS B   3      33.024  20.577  22.7130  0.00  0.00     0.000 OA
ENDBRANCH 42 49
BRANCH 43 53
ATOM     53   O  SUS B   3      29.657  20.870  22.6090  0.00  0.00     0.000 O
ATOM     54   S  SUS B   3      29.519  22.468  22.9710  0.00  0.00     0.000 S
ATOM     55   O  SUS B   3      30.606  22.804  23.8800  0.00  0.00     0.000 OA
ATOM     56   O  SUS B   3      29.609  23.129  21.6810  0.00  0.00     0.000 OA
ATOM     57   O  SUS B   3      28.214  22.636  23.6170  0.00  0.00     0.000 OA
ENDBRANCH 43 53
BRANCH 45 58
ATOM     58   C  SUS B   3      27.016  16.860  23.8540  0.00  0.00     0.000 C
ATOM     59   S  SUS B   3      24.929  15.625  24.6940  0.00  0.00     0.000 S
ATOM     60   O  SUS B   3      25.986  16.793  24.8550  0.00  0.00     0.000 O
ATOM     61   O  SUS B   3      25.605  14.433  25.1690  0.00  0.00     0.000 OA
ATOM     62   O  SUS B   3      23.897  16.073  25.5900  0.00  0.00     0.000 OA
ATOM     63   O  SUS B   3      24.578  15.617  23.3180  0.00  0.00     0.000 OA
ENDBRANCH 45 58
BRANCH 41 64
ATOM     64  O4  IDS B   4      30.102  18.559  26.3940  0.00  0.00     0.000 O
BRANCH 64 68
ATOM     65  C1  IDS B   4      29.948  18.701  30.0310  0.00  0.00     0.000 C
ATOM     66  C2  IDS B   4      31.269  18.981  29.3030  0.00  0.00     0.000 C
ATOM     67  C3  IDS B   4      31.611  17.977  28.2150  0.00  0.00     0.000 C
ATOM     68  C4  IDS B   4      30.403  17.562  27.3950  0.00  0.00     0.000 C
ATOM     69  C5  IDS B   4      29.241  17.294  28.3600  0.00  0.00     0.000 C
ATOM     70  O5  IDS B   4      28.930  18.497  29.0680  0.00  0.00     0.000 O
ATOM     71   O  IDS B   4      32.170  16.845  28.8490  0.00  0.00     0.000 O
ATOM     73  HD  IDS B   4      31.919  17.672  28.7910  0.00  0.00     0.000 HD
BRANCH 66 73
ATOM     73   O  IDS B   4      31.166  20.278  28.6200  0.00  0.00     0.000 O
ATOM     74   S  IDS B   4      32.277  21.404  28.9600  0.00  0.00     0.000 S
ATOM     75   O  IDS B   4      32.233  21.604  30.3930  0.00  0.00     0.000 OA
ATOM     76   O  IDS B   4      31.802  22.529  28.1960  0.00  0.00     0.000 OA
ATOM     77   O  IDS B   4      33.532  20.859  28.4990  0.00  0.00     0.000 OA
ENDBRANCH 66 73
BRANCH 69 78
ATOM     78   C  IDS B   4      28.019  16.657  27.7120  0.00  0.00     0.000 C
ATOM     79   O  IDS B   4      28.169  15.630  27.0510  0.00  0.00     0.000 OA
ATOM     80   O  IDS B   4      26.896  17.134  27.9590  0.00  0.00     0.000 OA
ENDBRANCH 69 78
BRANCH 65 81
ATOM     81  O4  SGN B   5      30.137  17.708  30.9450  0.00  0.00     0.000 O
BRANCH 81 85
ATOM     82  C1  SGN B   5      28.773  16.211  34.6240  0.00  0.00     0.000 C
ATOM     83  C2  SGN B   5      27.715  16.466  33.5390  0.00  0.00     0.000 C
ATOM     84  C3  SGN B   5      28.398  16.551  32.1670  0.00  0.00     0.000 C
ATOM     85  C4  SGN B   5      29.479  17.617  32.2100  0.00  0.00     0.000 C
ATOM     86  C5  SGN B   5      30.477  17.244  33.3030  0.00  0.00     0.000 C
ATOM     87  O5  SGN B   5      29.784  17.199  34.5650  0.00  0.00     0.000 O
ATOM     88   O  SGN B   5      27.440  16.843  31.1720  0.00  0.00     0.000 O
ATOM     90  HD  SGN B   5      27.778  16.061  31.3300  0.00  0.00     0.000 HD
BRANCH 83 92
ATOM     90   N  SGN B   5      26.914  15.833  34.6040  0.00  0.00     0.000 N
ATOM     92  HD  SGN B   5      27.182  16.087  35.3870  0.00  0.00     0.000 HD
ATOM     92   S  SGN B   5      25.328  15.776  34.4180  0.00  0.00     0.000 S
ATOM     93   O  SGN B   5      24.855  15.120  35.6010  0.00  0.00     0.000 OA
ATOM     94   O  SGN B   5      24.924  17.110  34.1330  0.00  0.00     0.000 OA
ATOM     95   O  SGN B   5      25.118  14.961  33.1600  0.00  0.00     0.000 OA
ENDBRANCH 83 92
BRANCH 86 96
ATOM     96   C  SGN B   5      31.626  18.219  33.4540  0.00  0.00     0.000 C
ATOM     97   O  SGN B   5      32.865  17.518  33.5900  0.00  0.00     0.000 O
ATOM     98   S  SGN B   5      34.049  17.981  32.6140  0.00  0.00     0.000 S
ATOM     99   O  SGN B   5      35.185  17.252  33.1240  0.00  0.00     0.000 OA
ATOM    100   O  SGN B   5      33.670  17.636  31.2910  0.00  0.00     0.000 OA
ATOM    101   O  SGN B   5      34.145  19.390  32.8160  0.00  0.00     0.000 OA
ENDBRANCH 86 96
BRANCH 82 102
ATOM    102  O4  IDS B   6      29.320  14.965  34.5390  0.00  0.00     0.000 O
BRANCH 102 106
ATOM    103  C1  IDS B   6      30.006  11.740  36.0840  0.00  0.00     0.000 C
ATOM    104  C2  IDS B   6      28.770  12.559  36.4890  0.00  0.00     0.000 C
ATOM    105  C3  IDS B   6      29.034  14.026  36.7680  0.00  0.00     0.000 C
ATOM    106  C4  IDS B   6      30.004  14.646  35.7780  0.00  0.00     0.000 C
ATOM    107  C5  IDS B   6      31.169  13.684  35.5240  0.00  0.00     0.000 C
ATOM    108  O5  IDS B   6      30.717  12.411  35.0600  0.00  0.00     0.000 O
ATOM    109   O  IDS B   6      29.525  14.142  38.0930  0.00  0.00     0.000 O
ATOM    111  HD  IDS B   6      29.850  13.358  38.2650  0.00  0.00     0.000 HD
BRANCH 104 111
ATOM    111   O  IDS B   6      27.800  12.542  35.3840  0.00  0.00     0.000 O
ATOM    112   S  IDS B   6      26.411  11.780  35.6130  0.00  0.00     0.000 S
ATOM    113   O  IDS B   6      26.791  10.414  35.9360  0.00  0.00     0.000 OA
ATOM    114   O  IDS B   6      25.669  12.476  36.6710  0.00  0.00     0.000 OA
ATOM    115   O  IDS B   6      25.839  11.935  34.2930  0.00  0.00     0.000 OA
ENDBRANCH 104 111
BRANCH 107 116
ATOM    116   C  IDS B   6      32.117  14.299  34.5020  0.00  0.00     0.000 C
ATOM    117   O  IDS B   6      33.086  14.868  34.9360  0.00  0.00     0.000 OA
ATOM    118   O  IDS B   6      31.895  14.225  33.3040  0.00  0.00     0.000 OA
ENDBRANCH 107 116
BRANCH 103 119
ATOM    119  O4  SGN B   7      30.594  11.436  37.2700  0.00  0.00     0.000 O
BRANCH 119 123
ATOM    120  C1  SGN B   7      32.862   8.266  38.7830  0.00  0.00     0.000 C
ATOM    121  C2  SGN B   7      33.612   9.391  38.0440  0.00  0.00     0.000 C
ATOM    122  C3  SGN B   7      32.724  10.635  37.9170  0.00  0.00     0.000 C
ATOM    123  C4  SGN B   7      31.398  10.257  37.2780  0.00  0.00     0.000 C
ATOM    124  C5  SGN B   7      30.735   9.127  38.0820  0.00  0.00     0.000 C
ATOM    125  O5  SGN B   7      31.604   7.976  38.1750  0.00  0.00     0.000 O
ATOM    126   O  SGN B   7      33.414  11.622  37.1410  0.00  0.00     0.000 O
ATOM    128  HD  SGN B   7      33.442  10.866  37.5630  0.00  0.00     0.000 HD
BRANCH 121 130
ATOM    128   N  SGN B   7      34.799   8.533  38.0920  0.00  0.00     0.000 N
ATOM    130  HD  SGN B   7      35.023   8.786  37.2950  0.00  0.00     0.000 HD
ATOM    130   S  SGN B   7      36.285   9.131  38.2580  0.00  0.00     0.000 S
ATOM    131   O  SGN B   7      36.209  10.013  39.3720  0.00  0.00     0.000 OA
ATOM    132   O  SGN B   7      37.203   8.050  38.2610  0.00  0.00     0.000 OA
ATOM    133   O  SGN B   7      36.474   9.807  36.8580  0.00  0.00     0.000 OA
ENDBRANCH 121 130
BRANCH 124 134
ATOM    134   C  SGN B   7      29.472   8.603  37.4640  0.00  0.00     0.000 C
ATOM    135   O  SGN B   7      29.076   7.414  38.1690  0.00  0.00     0.000 O
ATOM    136   S  SGN B   7      27.688   6.794  37.7730  0.00  0.00     0.000 S
ATOM    137   O  SGN B   7      27.559   5.570  38.5270  0.00  0.00     0.000 OA
ATOM    138   O  SGN B   7      27.766   6.573  36.3460  0.00  0.00     0.000 OA
ATOM    139   O  SGN B   7      26.755   7.836  38.1710  0.00  0.00     0.000 OA
ENDBRANCH 124 134
BRANCH 120 140
ATOM    140  O4  IDS B   8      32.487   8.231  40.0660  0.00  0.00     0.000 O
BRANCH 140 144
ATOM    141  C1  IDS B   8      31.247   9.551  43.1780  0.00  0.00     0.000 C
ATOM    142  C2  IDS B   8      32.159  10.406  42.2530  0.00  0.00     0.000 C
ATOM    143  C3  IDS B   8      33.419   9.655  41.7850  0.00  0.00     0.000 C
ATOM    144  C4  IDS B   8      33.106   8.222  41.3590  0.00  0.00     0.000 C
ATOM    145  C5  IDS B   8      32.176   7.555  42.3840  0.00  0.00     0.000 C
ATOM    146  O5  IDS B   8      30.972   8.297  42.5640  0.00  0.00     0.000 O
BRANCH 142 147
ATOM    147   O  IDS B   8      31.402  10.798  41.0350  0.00  0.00     0.000 O
ATOM    148   S  IDS B   8      30.696  12.253  40.9210  0.00  0.00     0.000 S
ATOM    149   O  IDS B   8      30.620  12.809  42.2530  0.00  0.00     0.000 OA
ATOM    150   O  IDS B   8      31.546  13.028  40.0360  0.00  0.00     0.000 OA
ATOM    151   O  IDS B   8      29.381  11.997  40.3650  0.00  0.00     0.000 OA
ENDBRANCH 142 147
BRANCH 145 152
ATOM    152   C  IDS B   8      31.749   6.163  41.9650  0.00  0.00     0.000 C
ATOM    153   O  IDS B   8      30.583   5.959  41.6470  0.00  0.00     0.000 OA
ATOM    154   O  IDS B   8      32.572   5.266  41.9300  0.00  0.00     0.000 OA
ENDBRANCH 145 152
ENDBRANCH 140 144
ENDBRANCH 120 140
ENDBRANCH 119 123
ENDBRANCH 103 119
ENDBRANCH 102 106
ENDBRANCH 82 102
ENDBRANCH 81 85
ENDBRANCH 65 81
ENDBRANCH 64 68
ENDBRANCH 41 64
ENDBRANCH 40 44
ENDBRANCH 24 40
ENDBRANCH 23 27
ENDBRANCH 1 23
TORSDOF 31
ENDMDL
MODEL 41
REMARK VINA RESULT:      -7.1      4.296      6.771
ROOT
ATOM      1  C1  SGN B   1      28.819  12.140  13.2090  0.00  0.00     0.000 C
ATOM      2  C2  SGN B   1      29.619  11.364  14.2680  0.00  0.00     0.000 C
ATOM      3  C3  SGN B   1      29.599  12.101  15.6120  0.00  0.00     0.000 C
ATOM      4  C4  SGN B   1      30.114  13.526  15.4380  0.00  0.00     0.000 C
ATOM      5  C5  SGN B   1      29.373  14.187  14.2780  0.00  0.00     0.000 C
ATOM      6  O5  SGN B   1      29.509  13.377  13.0950  0.00  0.00     0.000 O
ATOM      7   O  SGN B   1      30.377  11.404  16.5770  0.00  0.00     0.000 O
ATOM      9  HD  SGN B   1      30.971  11.591  15.9750  0.00  0.00     0.000 HD
ATOM      9   O  SGN B   1      29.899  14.254  16.6330  0.00  0.00     0.000 O
ATOM     11  HD  SGN B   1      30.492  14.441  16.0310  0.00  0.00     0.000 HD
ENDROOT
BRANCH 2 13
ATOM     11   N  SGN B   1      30.123  10.102  13.6940  0.00  0.00     0.000 N
ATOM     13  HD  SGN B   1      29.334  10.394  13.4900  0.00  0.00     0.000 HD
ATOM     13   S  SGN B   1      29.141   8.905  13.2550  0.00  0.00     0.000 S
ATOM     14   O  SGN B   1      27.797   9.282  13.4570  0.00  0.00     0.000 OA
ATOM     15   O  SGN B   1      29.551   8.432  11.9760  0.00  0.00     0.000 OA
ATOM     16   O  SGN B   1      29.598   7.846  14.3060  0.00  0.00     0.000 OA
ENDBRANCH 2 13
BRANCH 5 17
ATOM     17   C  SGN B   1      29.874  15.569  13.9370  0.00  0.00     0.000 C
ATOM     18   O  SGN B   1      30.098  15.699  12.5190  0.00  0.00     0.000 O
ATOM     19   S  SGN B   1      31.468  16.403  12.0870  0.00  0.00     0.000 S
ATOM     20   O  SGN B   1      31.345  16.622  10.6620  0.00  0.00     0.000 OA
ATOM     21   O  SGN B   1      31.496  17.623  12.8590  0.00  0.00     0.000 OA
ATOM     22   O  SGN B   1      32.505  15.459  12.4410  0.00  0.00     0.000 OA
ENDBRANCH 5 17
BRANCH 1 23
ATOM     23  O4  IDS B   2      27.553  12.244  12.7120  0.00  0.00     0.000 O
BRANCH 23 27
ATOM     24  C1  IDS B   2      25.208  14.647  15.1530  0.00  0.00     0.000 C
ATOM     25  C2  IDS B   2      24.995  13.125  15.3110  0.00  0.00     0.000 C
ATOM     26  C3  IDS B   2      26.096  12.342  14.6020  0.00  0.00     0.000 C
ATOM     27  C4  IDS B   2      26.256  12.714  13.1330  0.00  0.00     0.000 C
ATOM     28  C5  IDS B   2      26.034  14.228  12.9460  0.00  0.00     0.000 C
ATOM     29  O5  IDS B   2      26.215  14.923  14.1710  0.00  0.00     0.000 O
ATOM     30   O  IDS B   2      25.798  10.953  14.6630  0.00  0.00     0.000 O
ATOM     32  HD  IDS B   2      25.206  10.704  14.0820  0.00  0.00     0.000 HD
BRANCH 25 32
ATOM     32   O  IDS B   2      24.991  12.704  16.7340  0.00  0.00     0.000 O
ATOM     33   S  IDS B   2      23.723  11.882  17.3970  0.00  0.00     0.000 S
ATOM     34   O  IDS B   2      23.970  11.844  18.8290  0.00  0.00     0.000 OA
ATOM     35   O  IDS B   2      22.482  12.577  17.0890  0.00  0.00     0.000 OA
ATOM     36   O  IDS B   2      23.772  10.559  16.8190  0.00  0.00     0.000 OA
ENDBRANCH 25 32
BRANCH 28 37
ATOM     37   C  IDS B   2      26.854  14.946  11.8540  0.00  0.00     0.000 C
ATOM     38   O  IDS B   2      27.017  16.121  12.0890  0.00  0.00     0.000 OA
ATOM     39   O  IDS B   2      27.386  14.426  10.8430  0.00  0.00     0.000 OA
ENDBRANCH 28 37
BRANCH 24 40
ATOM     40  O4  SUS B   3      24.299  15.509  15.6540  0.00  0.00     0.000 O
BRANCH 40 44
ATOM     41  C1  SUS B   3      24.741  19.469  16.9450  0.00  0.00     0.000 C
ATOM     42  C2  SUS B   3      24.834  19.208  15.4290  0.00  0.00     0.000 C
ATOM     43  C3  SUS B   3      24.189  17.861  15.1100  0.00  0.00     0.000 C
ATOM     44  C4  SUS B   3      24.844  16.787  15.9640  0.00  0.00     0.000 C
ATOM     45  C5  SUS B   3      24.605  17.109  17.4250  0.00  0.00     0.000 C
ATOM     46  O5  SUS B   3      25.238  18.371  17.7170  0.00  0.00     0.000 O
BRANCH 42 49
ATOM     47   N  SUS B   3      24.284  20.420  14.7980  0.00  0.00     0.000 N
ATOM     49  HD  SUS B   3      23.589  20.312  14.2920  0.00  0.00     0.000 HD
ATOM     49   S  SUS B   3      25.383  21.237  13.9660  0.00  0.00     0.000 S
ATOM     50   O  SUS B   3      25.953  20.407  12.9800  0.00  0.00     0.000 OA
ATOM     51   O  SUS B   3      24.404  22.254  13.3260  0.00  0.00     0.000 OA
ATOM     52   O  SUS B   3      26.258  21.885  14.8600  0.00  0.00     0.000 OA
ENDBRANCH 42 49
BRANCH 43 53
ATOM     53   O  SUS B   3      24.416  17.575  13.6800  0.00  0.00     0.000 O
ATOM     54   S  SUS B   3      23.097  17.551  12.7010  0.00  0.00     0.000 S
ATOM     55   O  SUS B   3      22.633  18.924  12.5600  0.00  0.00     0.000 OA
ATOM     56   O  SUS B   3      23.587  16.968  11.4640  0.00  0.00     0.000 OA
ATOM     57   O  SUS B   3      22.095  16.719  13.3740  0.00  0.00     0.000 OA
ENDBRANCH 43 53
BRANCH 45 58
ATOM     58   C  SUS B   3      25.144  16.029  18.3380  0.00  0.00     0.000 C
ATOM     59   S  SUS B   3      24.807  14.968  20.6500  0.00  0.00     0.000 S
ATOM     60   O  SUS B   3      24.283  15.899  19.4810  0.00  0.00     0.000 O
ATOM     61   O  SUS B   3      25.791  15.765  21.3580  0.00  0.00     0.000 OA
ATOM     62   O  SUS B   3      23.598  14.779  21.4050  0.00  0.00     0.000 OA
ATOM     63   O  SUS B   3      25.313  13.805  20.0110  0.00  0.00     0.000 OA
ENDBRANCH 45 58
BRANCH 41 64
ATOM     64  O4  IDS B   4      23.514  19.933  17.3530  0.00  0.00     0.000 O
BRANCH 64 68
ATOM     65  C1  IDS B   4      22.087  22.440  19.5780  0.00  0.00     0.000 C
ATOM     66  C2  IDS B   4      23.595  22.425  19.2970  0.00  0.00     0.000 C
ATOM     67  C3  IDS B   4      24.238  21.052  19.3910  0.00  0.00     0.000 C
ATOM     68  C4  IDS B   4      23.377  19.956  18.7910  0.00  0.00     0.000 C
ATOM     69  C5  IDS B   4      21.933  20.170  19.2630  0.00  0.00     0.000 C
ATOM     70  O5  IDS B   4      21.467  21.437  18.7930  0.00  0.00     0.000 O
ATOM     71   O  IDS B   4      24.463  20.787  20.7600  0.00  0.00     0.000 O
ATOM     73  HD  IDS B   4      24.301  21.285  20.0710  0.00  0.00     0.000 HD
BRANCH 66 73
ATOM     73   O  IDS B   4      23.823  22.871  17.9160  0.00  0.00     0.000 O
ATOM     74   S  IDS B   4      24.589  24.278  17.6900  0.00  0.00     0.000 S
ATOM     75   O  IDS B   4      23.827  25.279  18.4040  0.00  0.00     0.000 OA
ATOM     76   O  IDS B   4      24.540  24.415  16.2560  0.00  0.00     0.000 OA
ATOM     77   O  IDS B   4      25.917  24.083  18.2220  0.00  0.00     0.000 OA
ENDBRANCH 66 73
BRANCH 69 78
ATOM     78   C  IDS B   4      20.984  19.028  18.9260  0.00  0.00     0.000 C
ATOM     79   O  IDS B   4      19.799  19.286  18.7200  0.00  0.00     0.000 OA
ATOM     80   O  IDS B   4      21.458  17.888  18.7660  0.00  0.00     0.000 OA
ENDBRANCH 69 78
BRANCH 65 81
ATOM     81  O4  SGN B   5      21.876  22.384  20.9230  0.00  0.00     0.000 O
BRANCH 81 85
ATOM     82  C1  SGN B   5      19.323  23.659  24.0040  0.00  0.00     0.000 C
ATOM     83  C2  SGN B   5      18.797  22.554  23.0740  0.00  0.00     0.000 C
ATOM     84  C3  SGN B   5      19.975  21.899  22.3390  0.00  0.00     0.000 C
ATOM     85  C4  SGN B   5      20.766  22.969  21.6080  0.00  0.00     0.000 C
ATOM     86  C5  SGN B   5      21.253  23.990  22.6330  0.00  0.00     0.000 C
ATOM     87  O5  SGN B   5      20.107  24.583  23.2740  0.00  0.00     0.000 O
ATOM     88   O  SGN B   5      19.495  20.922  21.4410  0.00  0.00     0.000 O
ATOM     90  HD  SGN B   5      19.845  20.762  22.2170  0.00  0.00     0.000 HD
BRANCH 83 92
ATOM     90   N  SGN B   5      17.440  22.950  23.4980  0.00  0.00     0.000 N
ATOM     92  HD  SGN B   5      17.132  23.588  22.9990  0.00  0.00     0.000 HD
ATOM     92   S  SGN B   5      16.392  21.793  23.8390  0.00  0.00     0.000 S
ATOM     93   O  SGN B   5      15.197  22.492  24.2020  0.00  0.00     0.000 OA
ATOM     94   O  SGN B   5      16.396  20.924  22.7130  0.00  0.00     0.000 OA
ATOM     95   O  SGN B   5      17.015  21.038  24.9940  0.00  0.00     0.000 OA
ENDBRANCH 83 92
BRANCH 86 96
ATOM     96   C  SGN B   5      22.074  25.118  22.0440  0.00  0.00     0.000 C
ATOM     97   O  SGN B   5      21.442  25.641  20.8730  0.00  0.00     0.000 O
ATOM     98   S  SGN B   5      21.249  27.232  20.8250  0.00  0.00     0.000 S
ATOM     99   O  SGN B   5      20.790  27.457  19.4750  0.00  0.00     0.000 OA
ATOM    100   O  SGN B   5      20.314  27.579  21.8340  0.00  0.00     0.000 OA
ATOM    101   O  SGN B   5      22.554  27.755  21.0720  0.00  0.00     0.000 OA
ENDBRANCH 86 96
BRANCH 82 102
ATOM    102  O4  IDS B   6      20.031  23.164  25.0580  0.00  0.00     0.000 O
BRANCH 102 106
ATOM    103  C1  IDS B   6      20.900  22.520  28.5350  0.00  0.00     0.000 C
ATOM    104  C2  IDS B   6      19.550  22.059  27.9640  0.00  0.00     0.000 C
ATOM    105  C3  IDS B   6      18.801  23.103  27.1590  0.00  0.00     0.000 C
ATOM    106  C4  IDS B   6      19.715  23.915  26.2580  0.00  0.00     0.000 C
ATOM    107  C5  IDS B   6      20.991  24.290  27.0180  0.00  0.00     0.000 C
ATOM    108  O5  IDS B   6      21.669  23.139  27.5220  0.00  0.00     0.000 O
ATOM    109   O  IDS B   6      18.109  23.947  28.0660  0.00  0.00     0.000 O
ATOM    111  HD  IDS B   6      18.547  23.858  28.8080  0.00  0.00     0.000 HD
BRANCH 104 111
ATOM    111   O  IDS B   6      19.779  20.943  27.0340  0.00  0.00     0.000 O
ATOM    112   S  IDS B   6      19.377  19.469  27.5110  0.00  0.00     0.000 S
ATOM    113   O  IDS B   6      20.156  19.250  28.7200  0.00  0.00     0.000 OA
ATOM    114   O  IDS B   6      17.923  19.424  27.7030  0.00  0.00     0.000 OA
ATOM    115   O  IDS B   6      19.844  18.716  26.3670  0.00  0.00     0.000 OA
ENDBRANCH 104 111
BRANCH 107 116
ATOM    116   C  IDS B   6      21.916  25.072  26.0940  0.00  0.00     0.000 C
ATOM    117   O  IDS B   6      21.553  26.175  25.7710  0.00  0.00     0.000 OA
ATOM    118   O  IDS B   6      22.967  24.596  25.6950  0.00  0.00     0.000 OA
ENDBRANCH 107 116
BRANCH 103 119
ATOM    119  O4  SGN B   7      20.558  23.186  29.6680  0.00  0.00     0.000 O
BRANCH 119 123
ATOM    120  C1  SGN B   7      22.343  23.947  33.3730  0.00  0.00     0.000 C
ATOM    121  C2  SGN B   7      22.677  24.901  32.2110  0.00  0.00     0.000 C
ATOM    122  C3  SGN B   7      21.662  24.739  31.0720  0.00  0.00     0.000 C
ATOM    123  C4  SGN B   7      21.577  23.277  30.6640  0.00  0.00     0.000 C
ATOM    124  C5  SGN B   7      21.247  22.410  31.8900  0.00  0.00     0.000 C
ATOM    125  O5  SGN B   7      22.229  22.594  32.9350  0.00  0.00     0.000 O
ATOM    126   O  SGN B   7      22.058  25.566  29.9730  0.00  0.00     0.000 O
ATOM    128  HD  SGN B   7      22.169  25.342  30.8020  0.00  0.00     0.000 HD
BRANCH 121 130
ATOM    128   N  SGN B   7      23.694  25.481  33.0920  0.00  0.00     0.000 N
ATOM    130  HD  SGN B   7      24.245  25.542  32.4270  0.00  0.00     0.000 HD
ATOM    130   S  SGN B   7      24.091  27.040  33.0370  0.00  0.00     0.000 S
ATOM    131   O  SGN B   7      22.855  27.742  33.1020  0.00  0.00     0.000 OA
ATOM    132   O  SGN B   7      25.102  27.278  34.0030  0.00  0.00     0.000 OA
ATOM    133   O  SGN B   7      24.839  27.091  31.6610  0.00  0.00     0.000 OA
ENDBRANCH 121 130
BRANCH 124 134
ATOM    134   C  SGN B   7      21.256  20.936  31.6120  0.00  0.00     0.000 C
ATOM    135   O  SGN B   7      21.989  20.277  32.6580  0.00  0.00     0.000 O
ATOM    136   S  SGN B   7      21.984  18.706  32.6330  0.00  0.00     0.000 S
ATOM    137   O  SGN B   7      22.858  18.280  33.7000  0.00  0.00     0.000 OA
ATOM    138   O  SGN B   7      22.477  18.347  31.3230  0.00  0.00     0.000 OA
ATOM    139   O  SGN B   7      20.581  18.393  32.8560  0.00  0.00     0.000 OA
ENDBRANCH 124 134
BRANCH 120 140
ATOM    140  O4  IDS B   8      21.290  23.990  34.1960  0.00  0.00     0.000 O
BRANCH 140 144
ATOM    141  C1  IDS B   8      17.854  24.497  35.1470  0.00  0.00     0.000 C
ATOM    142  C2  IDS B   8      18.531  25.404  34.0800  0.00  0.00     0.000 C
ATOM    143  C3  IDS B   8      19.902  25.943  34.5280  0.00  0.00     0.000 C
ATOM    144  C4  IDS B   8      20.752  24.863  35.1970  0.00  0.00     0.000 C
ATOM    145  C5  IDS B   8      19.901  24.062  36.1940  0.00  0.00     0.000 C
ATOM    146  O5  IDS B   8      18.759  23.483  35.5670  0.00  0.00     0.000 O
BRANCH 142 147
ATOM    147   O  IDS B   8      18.751  24.624  32.8340  0.00  0.00     0.000 O
ATOM    148   S  IDS B   8      17.764  24.792  31.5570  0.00  0.00     0.000 S
ATOM    149   O  IDS B   8      16.560  25.447  32.0170  0.00  0.00     0.000 OA
ATOM    150   O  IDS B   8      18.505  25.590  30.5980  0.00  0.00     0.000 OA
ATOM    151   O  IDS B   8      17.504  23.442  31.0950  0.00  0.00     0.000 OA
ENDBRANCH 142 147
BRANCH 145 152
ATOM    152   C  IDS B   8      20.664  22.911  36.8180  0.00  0.00     0.000 C
ATOM    153   O  IDS B   8      20.384  21.760  36.5030  0.00  0.00     0.000 OA
ATOM    154   O  IDS B   8      21.560  23.141  37.6100  0.00  0.00     0.000 OA
ENDBRANCH 145 152
ENDBRANCH 140 144
ENDBRANCH 120 140
ENDBRANCH 119 123
ENDBRANCH 103 119
ENDBRANCH 102 106
ENDBRANCH 82 102
ENDBRANCH 81 85
ENDBRANCH 65 81
ENDBRANCH 64 68
ENDBRANCH 41 64
ENDBRANCH 40 44
ENDBRANCH 24 40
ENDBRANCH 23 27
ENDBRANCH 1 23
TORSDOF 31
ENDMDL
MODEL 42
REMARK VINA RESULT:      -7.1      4.884      7.068
ROOT
ATOM      1  C1  SGN B   1      28.245  10.846  14.4240  0.00  0.00     0.000 C
ATOM      2  C2  SGN B   1      29.566  10.428  15.0900  0.00  0.00     0.000 C
ATOM      3  C3  SGN B   1      30.225   9.282  14.3160  0.00  0.00     0.000 C
ATOM      4  C4  SGN B   1      29.258   8.110  14.1830  0.00  0.00     0.000 C
ATOM      5  C5  SGN B   1      27.923   8.624  13.6490  0.00  0.00     0.000 C
ATOM      6  O5  SGN B   1      27.437   9.679  14.5010  0.00  0.00     0.000 O
ATOM      7   O  SGN B   1      31.425   8.868  14.9600  0.00  0.00     0.000 O
ATOM      9  HD  SGN B   1      30.832   8.709  15.5720  0.00  0.00     0.000 HD
ATOM      9   O  SGN B   1      29.801   7.149  13.2970  0.00  0.00     0.000 O
ATOM     11  HD  SGN B   1      29.209   6.991  13.9090  0.00  0.00     0.000 HD
ENDROOT
BRANCH 2 13
ATOM     11   N  SGN B   1      29.384  11.462  16.1260  0.00  0.00     0.000 N
ATOM     13  HD  SGN B   1      29.608  11.682  15.3190  0.00  0.00     0.000 HD
ATOM     13   S  SGN B   1      30.174  12.863  16.0900  0.00  0.00     0.000 S
ATOM     14   O  SGN B   1      30.978  12.937  14.9330  0.00  0.00     0.000 OA
ATOM     15   O  SGN B   1      29.249  13.910  16.3680  0.00  0.00     0.000 OA
ATOM     16   O  SGN B   1      31.041  12.663  17.3720  0.00  0.00     0.000 OA
ENDBRANCH 2 13
BRANCH 5 17
ATOM     17   C  SGN B   1      26.844   7.572  13.5770  0.00  0.00     0.000 C
ATOM     18   O  SGN B   1      25.859   7.911  12.5810  0.00  0.00     0.000 O
ATOM     19   S  SGN B   1      24.331   7.733  13.0160  0.00  0.00     0.000 S
ATOM     20   O  SGN B   1      23.571   7.904  11.7960  0.00  0.00     0.000 OA
ATOM     21   O  SGN B   1      24.271   6.393  13.5520  0.00  0.00     0.000 OA
ATOM     22   O  SGN B   1      24.094   8.769  13.9970  0.00  0.00     0.000 OA
ENDBRANCH 5 17
BRANCH 1 23
ATOM     23  O4  IDS B   2      27.768  11.704  13.4780  0.00  0.00     0.000 O
BRANCH 23 27
ATOM     24  C1  IDS B   2      25.715  15.113  14.6580  0.00  0.00     0.000 C
ATOM     25  C2  IDS B   2      24.918  13.793  14.7400  0.00  0.00     0.000 C
ATOM     26  C3  IDS B   2      25.840  12.588  14.5750  0.00  0.00     0.000 C
ATOM     27  C4  IDS B   2      26.677  12.633  13.3040  0.00  0.00     0.000 C
ATOM     28  C5  IDS B   2      27.115  14.083  13.0130  0.00  0.00     0.000 C
ATOM     29  O5  IDS B   2      27.049  14.878  14.1870  0.00  0.00     0.000 O
ATOM     30   O  IDS B   2      25.056  11.401  14.5310  0.00  0.00     0.000 O
ATOM     32  HD  IDS B   2      24.688  11.263  13.7590  0.00  0.00     0.000 HD
BRANCH 25 32
ATOM     32   O  IDS B   2      24.212  13.643  16.0360  0.00  0.00     0.000 O
ATOM     33   S  IDS B   2      22.568  13.726  16.1480  0.00  0.00     0.000 S
ATOM     34   O  IDS B   2      22.260  13.764  17.5690  0.00  0.00     0.000 OA
ATOM     35   O  IDS B   2      22.096  14.926  15.4700  0.00  0.00     0.000 OA
ATOM     36   O  IDS B   2      22.073  12.516  15.5340  0.00  0.00     0.000 OA
ENDBRANCH 25 32
BRANCH 28 37
ATOM     37   C  IDS B   2      28.493  14.301  12.3560  0.00  0.00     0.000 C
ATOM     38   O  IDS B   2      29.268  14.883  13.0770  0.00  0.00     0.000 OA
ATOM     39   O  IDS B   2      28.867  13.890  11.2300  0.00  0.00     0.000 OA
ENDBRANCH 28 37
BRANCH 24 40
ATOM     40  O4  SUS B   3      25.067  16.295  14.7140  0.00  0.00     0.000 O
BRANCH 40 44
ATOM     41  C1  SUS B   3      26.335  19.905  16.4190  0.00  0.00     0.000 C
ATOM     42  C2  SUS B   3      26.549  19.728  14.9020  0.00  0.00     0.000 C
ATOM     43  C3  SUS B   3      25.627  18.624  14.3900  0.00  0.00     0.000 C
ATOM     44  C4  SUS B   3      25.875  17.361  15.2010  0.00  0.00     0.000 C
ATOM     45  C5  SUS B   3      25.544  17.638  16.6530  0.00  0.00     0.000 C
ATOM     46  O5  SUS B   3      26.435  18.666  17.1300  0.00  0.00     0.000 O
BRANCH 42 49
ATOM     47   N  SUS B   3      26.410  21.082  14.3380  0.00  0.00     0.000 N
ATOM     49  HD  SUS B   3      25.779  21.195  13.7550  0.00  0.00     0.000 HD
ATOM     49   S  SUS B   3      27.775  21.632  13.7070  0.00  0.00     0.000 S
ATOM     50   O  SUS B   3      28.233  20.747  12.7090  0.00  0.00     0.000 OA
ATOM     51   O  SUS B   3      27.176  22.912  13.0700  0.00  0.00     0.000 OA
ATOM     52   O  SUS B   3      28.669  21.964  14.7450  0.00  0.00     0.000 OA
ENDBRANCH 42 49
BRANCH 43 53
ATOM     53   O  SUS B   3      25.953  18.381  12.9710  0.00  0.00     0.000 O
ATOM     54   S  SUS B   3      24.829  18.825  11.8570  0.00  0.00     0.000 S
ATOM     55   O  SUS B   3      24.809  20.280  11.8140  0.00  0.00     0.000 OA
ATOM     56   O  SUS B   3      25.291  18.208  10.6260  0.00  0.00     0.000 OA
ATOM     57   O  SUS B   3      23.547  18.290  12.3260  0.00  0.00     0.000 OA
ENDBRANCH 43 53
BRANCH 45 58
ATOM     58   C  SUS B   3      25.670  16.397  17.5090  0.00  0.00     0.000 C
ATOM     59   S  SUS B   3      24.769  15.303  19.6490  0.00  0.00     0.000 S
ATOM     60   O  SUS B   3      24.655  16.415  18.5270  0.00  0.00     0.000 O
ATOM     61   O  SUS B   3      25.811  15.772  20.5420  0.00  0.00     0.000 OA
ATOM     62   O  SUS B   3      23.458  15.380  20.2360  0.00  0.00     0.000 OA
ATOM     63   O  SUS B   3      25.057  14.096  18.9590  0.00  0.00     0.000 OA
ENDBRANCH 45 58
BRANCH 41 64
ATOM     64  O4  IDS B   4      25.225  20.648  16.7380  0.00  0.00     0.000 O
BRANCH 64 68
ATOM     65  C1  IDS B   4      23.850  23.204  18.9410  0.00  0.00     0.000 C
ATOM     66  C2  IDS B   4      25.368  23.017  18.8290  0.00  0.00     0.000 C
ATOM     67  C3  IDS B   4      25.830  21.571  18.9090  0.00  0.00     0.000 C
ATOM     68  C4  IDS B   4      24.923  20.620  18.1510  0.00  0.00     0.000 C
ATOM     69  C5  IDS B   4      23.469  20.989  18.4730  0.00  0.00     0.000 C
ATOM     70  O5  IDS B   4      23.214  22.325  18.0320  0.00  0.00     0.000 O
ATOM     71   O  IDS B   4      25.860  21.215  20.2760  0.00  0.00     0.000 O
ATOM     73  HD  IDS B   4      25.840  21.763  19.6050  0.00  0.00     0.000 HD
BRANCH 66 73
ATOM     73   O  IDS B   4      25.808  23.496  17.5120  0.00  0.00     0.000 O
ATOM     74   S  IDS B   4      26.800  24.773  17.4610  0.00  0.00     0.000 S
ATOM     75   O  IDS B   4      26.126  25.842  18.1670  0.00  0.00     0.000 OA
ATOM     76   O  IDS B   4      26.925  24.995  16.0430  0.00  0.00     0.000 OA
ATOM     77   O  IDS B   4      28.017  24.341  18.1050  0.00  0.00     0.000 OA
ENDBRANCH 66 73
BRANCH 69 78
ATOM     78   C  IDS B   4      22.439  19.990  17.9630  0.00  0.00     0.000 C
ATOM     79   O  IDS B   4      22.738  18.797  17.9320  0.00  0.00     0.000 OA
ATOM     80   O  IDS B   4      21.294  20.399  17.6950  0.00  0.00     0.000 OA
ENDBRANCH 69 78
BRANCH 65 81
ATOM     81  O4  SGN B   5      23.477  23.111  20.2480  0.00  0.00     0.000 O
BRANCH 81 85
ATOM     82  C1  SGN B   5      20.755  24.558  23.1000  0.00  0.00     0.000 C
ATOM     83  C2  SGN B   5      20.221  23.545  22.0760  0.00  0.00     0.000 C
ATOM     84  C3  SGN B   5      21.396  22.790  21.4400  0.00  0.00     0.000 C
ATOM     85  C4  SGN B   5      22.367  23.790  20.8390  0.00  0.00     0.000 C
ATOM     86  C5  SGN B   5      22.844  24.722  21.9500  0.00  0.00     0.000 C
ATOM     87  O5  SGN B   5      21.704  25.414  22.4930  0.00  0.00     0.000 O
ATOM     88   O  SGN B   5      20.917  21.898  20.4570  0.00  0.00     0.000 O
ATOM     90  HD  SGN B   5      21.164  21.678  21.2570  0.00  0.00     0.000 HD
BRANCH 83 92
ATOM     90   N  SGN B   5      18.931  24.017  22.6150  0.00  0.00     0.000 N
ATOM     92  HD  SGN B   5      18.765  24.828  22.3600  0.00  0.00     0.000 HD
ATOM     92   S  SGN B   5      17.682  23.022  22.5570  0.00  0.00     0.000 S
ATOM     93   O  SGN B   5      16.607  23.767  23.1390  0.00  0.00     0.000 OA
ATOM     94   O  SGN B   5      17.598  22.587  21.2040  0.00  0.00     0.000 OA
ATOM     95   O  SGN B   5      18.101  21.830  23.3890  0.00  0.00     0.000 OA
ENDBRANCH 83 92
BRANCH 86 96
ATOM     96   C  SGN B   5      23.836  25.774  21.4950  0.00  0.00     0.000 C
ATOM     97   O  SGN B   5      23.388  26.398  20.2890  0.00  0.00     0.000 O
ATOM     98   S  SGN B   5      23.368  28.001  20.2900  0.00  0.00     0.000 S
ATOM     99   O  SGN B   5      23.080  28.316  18.9110  0.00  0.00     0.000 OA
ATOM    100   O  SGN B   5      22.373  28.415  21.2120  0.00  0.00     0.000 OA
ATOM    101   O  SGN B   5      24.686  28.372  20.6910  0.00  0.00     0.000 OA
ENDBRANCH 86 96
BRANCH 82 102
ATOM    102  O4  IDS B   6      21.291  23.958  24.2000  0.00  0.00     0.000 O
BRANCH 102 106
ATOM    103  C1  IDS B   6      21.690  23.121  27.7210  0.00  0.00     0.000 C
ATOM    104  C2  IDS B   6      20.362  22.855  26.9950  0.00  0.00     0.000 C
ATOM    105  C3  IDS B   6      19.844  24.008  26.1580  0.00  0.00     0.000 C
ATOM    106  C4  IDS B   6      20.947  24.715  25.3880  0.00  0.00     0.000 C
ATOM    107  C5  IDS B   6      22.170  24.900  26.2900  0.00  0.00     0.000 C
ATOM    108  O5  IDS B   6      22.637  23.657  26.8170  0.00  0.00     0.000 O
ATOM    109   O  IDS B   6      19.173  24.913  27.0190  0.00  0.00     0.000 O
ATOM    111  HD  IDS B   6      19.513  24.749  27.7990  0.00  0.00     0.000 HD
BRANCH 104 111
ATOM    111   O  IDS B   6      20.546  21.742  26.0510  0.00  0.00     0.000 O
ATOM    112   S  IDS B   6      19.838  20.345  26.3860  0.00  0.00     0.000 S
ATOM    113   O  IDS B   6      20.375  19.965  27.6840  0.00  0.00     0.000 OA
ATOM    114   O  IDS B   6      18.384  20.543  26.3590  0.00  0.00     0.000 OA
ATOM    115   O  IDS B   6      20.346  19.556  25.2860  0.00  0.00     0.000 OA
ENDBRANCH 104 111
BRANCH 107 116
ATOM    116   C  IDS B   6      23.282  25.576  25.4980  0.00  0.00     0.000 C
ATOM    117   O  IDS B   6      23.101  26.725  25.1830  0.00  0.00     0.000 OA
ATOM    118   O  IDS B   6      24.300  24.976  25.1930  0.00  0.00     0.000 OA
ENDBRANCH 107 116
BRANCH 103 119
ATOM    119  O4  SGN B   7      21.316  23.797  28.8370  0.00  0.00     0.000 O
BRANCH 119 123
ATOM    120  C1  SGN B   7      22.808  24.296  32.7120  0.00  0.00     0.000 C
ATOM    121  C2  SGN B   7      23.394  25.188  31.6020  0.00  0.00     0.000 C
ATOM    122  C3  SGN B   7      22.487  25.174  30.3650  0.00  0.00     0.000 C
ATOM    123  C4  SGN B   7      22.232  23.740  29.9320  0.00  0.00     0.000 C
ATOM    124  C5  SGN B   7      21.656  22.933  31.1070  0.00  0.00     0.000 C
ATOM    125  O5  SGN B   7      22.543  22.973  32.2480  0.00  0.00     0.000 O
ATOM    126   O  SGN B   7      23.109  25.932  29.3220  0.00  0.00     0.000 O
ATOM    128  HD  SGN B   7      23.101  25.696  30.1550  0.00  0.00     0.000 HD
BRANCH 121 130
ATOM    128   N  SGN B   7      24.471  25.585  32.5120  0.00  0.00     0.000 N
ATOM    130  HD  SGN B   7      25.019  25.657  31.8450  0.00  0.00     0.000 HD
ATOM    130   S  SGN B   7      25.014  27.099  32.5930  0.00  0.00     0.000 S
ATOM    131   O  SGN B   7      23.851  27.904  32.7470  0.00  0.00     0.000 OA
ATOM    132   O  SGN B   7      26.054  27.149  33.5580  0.00  0.00     0.000 OA
ATOM    133   O  SGN B   7      25.749  27.208  31.2140  0.00  0.00     0.000 OA
ENDBRANCH 121 130
BRANCH 124 134
ATOM    134   C  SGN B   7      21.477  21.473  30.8120  0.00  0.00     0.000 C
ATOM    135   O  SGN B   7      22.463  20.732  31.5510  0.00  0.00     0.000 O
ATOM    136   S  SGN B   7      22.347  19.167  31.4980  0.00  0.00     0.000 S
ATOM    137   O  SGN B   7      23.488  18.651  32.2160  0.00  0.00     0.000 OA
ATOM    138   O  SGN B   7      22.368  18.833  30.0920  0.00  0.00     0.000 OA
ATOM    139   O  SGN B   7      21.073  18.925  32.1570  0.00  0.00     0.000 OA
ENDBRANCH 124 134
BRANCH 120 140
ATOM    140  O4  IDS B   8      21.695  24.494  33.4250  0.00  0.00     0.000 O
BRANCH 140 144
ATOM    141  C1  IDS B   8      18.295  25.527  34.0060  0.00  0.00     0.000 C
ATOM    142  C2  IDS B   8      19.217  26.319  33.0350  0.00  0.00     0.000 C
ATOM    143  C3  IDS B   8      20.597  26.639  33.6400  0.00  0.00     0.000 C
ATOM    144  C4  IDS B   8      21.191  25.439  34.3770  0.00  0.00     0.000 C
ATOM    145  C5  IDS B   8      20.122  24.780  35.2620  0.00  0.00     0.000 C
ATOM    146  O5  IDS B   8      18.981  24.385  34.5040  0.00  0.00     0.000 O
BRANCH 142 147
ATOM    147   O  IDS B   8      19.450  25.516  31.8060  0.00  0.00     0.000 O
ATOM    148   S  IDS B   8      18.580  25.772  30.4620  0.00  0.00     0.000 S
ATOM    149   O  IDS B   8      17.414  26.542  30.8350  0.00  0.00     0.000 OA
ATOM    150   O  IDS B   8      19.462  26.489  29.5600  0.00  0.00     0.000 OA
ATOM    151   O  IDS B   8      18.224  24.451  29.9800  0.00  0.00     0.000 OA
ENDBRANCH 142 147
BRANCH 145 152
ATOM    152   C  IDS B   8      20.624  23.523  35.9440  0.00  0.00     0.000 C
ATOM    153   O  IDS B   8      21.565  23.595  36.7260  0.00  0.00     0.000 OA
ATOM    154   O  IDS B   8      20.075  22.459  35.7240  0.00  0.00     0.000 OA
ENDBRANCH 145 152
ENDBRANCH 140 144
ENDBRANCH 120 140
ENDBRANCH 119 123
ENDBRANCH 103 119
ENDBRANCH 102 106
ENDBRANCH 82 102
ENDBRANCH 81 85
ENDBRANCH 65 81
ENDBRANCH 64 68
ENDBRANCH 41 64
ENDBRANCH 40 44
ENDBRANCH 24 40
ENDBRANCH 23 27
ENDBRANCH 1 23
TORSDOF 31
ENDMDL
MODEL 43
REMARK VINA RESULT:      -7.1      7.245     10.370
ROOT
ATOM      1  C1  SGN B   1      28.237  10.914  14.4430  0.00  0.00     0.000 C
ATOM      2  C2  SGN B   1      29.556  10.488  15.1070  0.00  0.00     0.000 C
ATOM      3  C3  SGN B   1      30.215   9.347  14.3230  0.00  0.00     0.000 C
ATOM      4  C4  SGN B   1      29.245   8.179  14.1800  0.00  0.00     0.000 C
ATOM      5  C5  SGN B   1      27.911   8.699  13.6490  0.00  0.00     0.000 C
ATOM      6  O5  SGN B   1      27.426   9.748  14.5090  0.00  0.00     0.000 O
ATOM      7   O  SGN B   1      31.412   8.926  14.9650  0.00  0.00     0.000 O
ATOM      9  HD  SGN B   1      30.819   8.763  15.5750  0.00  0.00     0.000 HD
ATOM      9   O  SGN B   1      29.787   7.224  13.2870  0.00  0.00     0.000 O
ATOM     11  HD  SGN B   1      29.194   7.061  13.8970  0.00  0.00     0.000 HD
ENDROOT
BRANCH 2 13
ATOM     11   N  SGN B   1      29.394  11.503  16.1650  0.00  0.00     0.000 N
ATOM     13  HD  SGN B   1      29.592  11.739  15.3550  0.00  0.00     0.000 HD
ATOM     13   S  SGN B   1      30.168  12.914  16.1280  0.00  0.00     0.000 S
ATOM     14   O  SGN B   1      30.936  13.015  14.9490  0.00  0.00     0.000 OA
ATOM     15   O  SGN B   1      29.240  13.945  16.4500  0.00  0.00     0.000 OA
ATOM     16   O  SGN B   1      31.075  12.703  17.3790  0.00  0.00     0.000 OA
ENDBRANCH 2 13
BRANCH 5 17
ATOM     17   C  SGN B   1      26.831   7.649  13.5670  0.00  0.00     0.000 C
ATOM     18   O  SGN B   1      25.792   8.050  12.6520  0.00  0.00     0.000 O
ATOM     19   S  SGN B   1      24.290   7.837  13.1600  0.00  0.00     0.000 S
ATOM     20   O  SGN B   1      23.463   8.086  11.9980  0.00  0.00     0.000 OA
ATOM     21   O  SGN B   1      24.261   6.464  13.6070  0.00  0.00     0.000 OA
ATOM     22   O  SGN B   1      24.108   8.805  14.2190  0.00  0.00     0.000 OA
ENDBRANCH 5 17
BRANCH 1 23
ATOM     23  O4  IDS B   2      27.762  11.781  13.5030  0.00  0.00     0.000 O
BRANCH 23 27
ATOM     24  C1  IDS B   2      25.786  15.177  14.8420  0.00  0.00     0.000 C
ATOM     25  C2  IDS B   2      24.944  13.883  14.8150  0.00  0.00     0.000 C
ATOM     26  C3  IDS B   2      25.830  12.659  14.5990  0.00  0.00     0.000 C
ATOM     27  C4  IDS B   2      26.709  12.756  13.3590  0.00  0.00     0.000 C
ATOM     28  C5  IDS B   2      27.202  14.206  13.1750  0.00  0.00     0.000 C
ATOM     29  O5  IDS B   2      27.126  14.926  14.3960  0.00  0.00     0.000 O
ATOM     30   O  IDS B   2      25.010  11.506  14.4540  0.00  0.00     0.000 O
ATOM     32  HD  IDS B   2      24.662  11.430  13.6650  0.00  0.00     0.000 HD
BRANCH 25 32
ATOM     32   O  IDS B   2      24.193  13.675  16.0770  0.00  0.00     0.000 O
ATOM     33   S  IDS B   2      22.546  13.760  16.1350  0.00  0.00     0.000 S
ATOM     34   O  IDS B   2      22.188  13.731  17.5450  0.00  0.00     0.000 OA
ATOM     35   O  IDS B   2      22.102  14.992  15.4980  0.00  0.00     0.000 OA
ATOM     36   O  IDS B   2      22.070  12.582  15.4480  0.00  0.00     0.000 OA
ENDBRANCH 25 32
BRANCH 28 37
ATOM     37   C  IDS B   2      28.607  14.417  12.5750  0.00  0.00     0.000 C
ATOM     38   O  IDS B   2      29.307  15.125  13.2600  0.00  0.00     0.000 OA
ATOM     39   O  IDS B   2      29.070  13.893  11.5320  0.00  0.00     0.000 OA
ENDBRANCH 28 37
BRANCH 24 40
ATOM     40  O4  SUS B   3      25.175  16.375  14.9560  0.00  0.00     0.000 O
BRANCH 40 44
ATOM     41  C1  SUS B   3      26.350  19.838  16.9990  0.00  0.00     0.000 C
ATOM     42  C2  SUS B   3      27.200  19.413  15.7850  0.00  0.00     0.000 C
ATOM     43  C3  SUS B   3      26.385  18.466  14.9070  0.00  0.00     0.000 C
ATOM     44  C4  SUS B   3      25.897  17.304  15.7570  0.00  0.00     0.000 C
ATOM     45  C5  SUS B   3      25.003  17.841  16.8550  0.00  0.00     0.000 C
ATOM     46  O5  SUS B   3      25.790  18.715  17.6890  0.00  0.00     0.000 O
BRANCH 42 49
ATOM     47   N  SUS B   3      28.226  20.282  16.3870  0.00  0.00     0.000 N
ATOM     49  HD  SUS B   3      27.940  20.954  16.8520  0.00  0.00     0.000 HD
ATOM     49   S  SUS B   3      29.277  20.834  15.3100  0.00  0.00     0.000 S
ATOM     50   O  SUS B   3      28.598  21.536  14.2940  0.00  0.00     0.000 OA
ATOM     51   O  SUS B   3      30.006  21.818  16.2600  0.00  0.00     0.000 OA
ATOM     52   O  SUS B   3      30.137  19.789  14.9200  0.00  0.00     0.000 OA
ENDBRANCH 42 49
BRANCH 43 53
ATOM     53   O  SUS B   3      27.268  17.968  13.8340  0.00  0.00     0.000 O
ATOM     54   S  SUS B   3      26.836  18.315  12.2860  0.00  0.00     0.000 S
ATOM     55   O  SUS B   3      27.055  19.741  12.0820  0.00  0.00     0.000 OA
ATOM     56   O  SUS B   3      27.699  17.469  11.4820  0.00  0.00     0.000 OA
ATOM     57   O  SUS B   3      25.416  17.973  12.1650  0.00  0.00     0.000 OA
ENDBRANCH 43 53
BRANCH 45 58
ATOM     58   C  SUS B   3      24.397  16.731  17.6860  0.00  0.00     0.000 C
ATOM     59   S  SUS B   3      24.884  15.178  19.6700  0.00  0.00     0.000 S
ATOM     60   O  SUS B   3      25.250  16.456  18.8100  0.00  0.00     0.000 O
ATOM     61   O  SUS B   3      25.372  14.050  18.8980  0.00  0.00     0.000 OA
ATOM     62   O  SUS B   3      25.664  15.420  20.8540  0.00  0.00     0.000 OA
ATOM     63   O  SUS B   3      23.476  15.230  19.8480  0.00  0.00     0.000 OA
ENDBRANCH 45 58
BRANCH 41 64
ATOM     64  O4  IDS B   4      25.447  20.834  16.7210  0.00  0.00     0.000 O
BRANCH 64 68
ATOM     65  C1  IDS B   4      23.765  23.984  17.4460  0.00  0.00     0.000 C
ATOM     66  C2  IDS B   4      25.214  23.760  17.8980  0.00  0.00     0.000 C
ATOM     67  C3  IDS B   4      25.461  22.419  18.5690  0.00  0.00     0.000 C
ATOM     68  C4  IDS B   4      24.727  21.277  17.8930  0.00  0.00     0.000 C
ATOM     69  C5  IDS B   4      23.296  21.741  17.5920  0.00  0.00     0.000 C
ATOM     70  O5  IDS B   4      23.341  22.857  16.7000  0.00  0.00     0.000 O
ATOM     71   O  IDS B   4      25.032  22.535  19.9100  0.00  0.00     0.000 O
ATOM     73  HD  IDS B   4      25.280  22.830  19.1340  0.00  0.00     0.000 HD
BRANCH 66 73
ATOM     73   O  IDS B   4      26.086  23.773  16.7160  0.00  0.00     0.000 O
ATOM     74   S  IDS B   4      27.333  24.803  16.7050  0.00  0.00     0.000 S
ATOM     75   O  IDS B   4      26.776  26.123  16.9130  0.00  0.00     0.000 OA
ATOM     76   O  IDS B   4      27.877  24.596  15.3860  0.00  0.00     0.000 OA
ATOM     77   O  IDS B   4      28.198  24.373  17.7780  0.00  0.00     0.000 OA
ENDBRANCH 66 73
BRANCH 69 78
ATOM     78   C  IDS B   4      22.364  20.636  17.1120  0.00  0.00     0.000 C
ATOM     79   O  IDS B   4      21.892  20.713  15.9780  0.00  0.00     0.000 OA
ATOM     80   O  IDS B   4      22.194  19.641  17.8400  0.00  0.00     0.000 OA
ENDBRANCH 69 78
BRANCH 65 81
ATOM     81  O4  SGN B   5      23.003  24.331  18.5200  0.00  0.00     0.000 O
BRANCH 81 85
ATOM     82  C1  SGN B   5      19.287  26.020  19.5070  0.00  0.00     0.000 C
ATOM     83  C2  SGN B   5      19.400  24.490  19.5820  0.00  0.00     0.000 C
ATOM     84  C3  SGN B   5      20.880  24.087  19.6550  0.00  0.00     0.000 C
ATOM     85  C4  SGN B   5      21.619  24.683  18.4700  0.00  0.00     0.000 C
ATOM     86  C5  SGN B   5      21.455  26.200  18.5150  0.00  0.00     0.000 C
ATOM     87  O5  SGN B   5      20.052  26.516  18.4250  0.00  0.00     0.000 O
ATOM     88   O  SGN B   5      20.994  22.681  19.6670  0.00  0.00     0.000 O
ATOM     90  HD  SGN B   5      21.065  23.197  20.3590  0.00  0.00     0.000 HD
BRANCH 83 92
ATOM     90   N  SGN B   5      18.015  24.723  20.0360  0.00  0.00     0.000 N
ATOM     92  HD  SGN B   5      17.623  25.317  19.5430  0.00  0.00     0.000 HD
ATOM     92   S  SGN B   5      17.121  23.451  20.4040  0.00  0.00     0.000 S
ATOM     93   O  SGN B   5      15.859  24.005  20.7930  0.00  0.00     0.000 OA
ATOM     94   O  SGN B   5      17.202  22.583  19.2790  0.00  0.00     0.000 OA
ATOM     95   O  SGN B   5      17.855  22.781  21.5440  0.00  0.00     0.000 OA
ENDBRANCH 83 92
BRANCH 86 96
ATOM     96   C  SGN B   5      22.156  26.935  17.3910  0.00  0.00     0.000 C
ATOM     97   O  SGN B   5      21.660  26.502  16.1220  0.00  0.00     0.000 O
ATOM     98   S  SGN B   5      21.203  27.659  15.1110  0.00  0.00     0.000 S
ATOM     99   O  SGN B   5      20.959  26.934  13.8870  0.00  0.00     0.000 OA
ATOM    100   O  SGN B   5      20.057  28.283  15.6680  0.00  0.00     0.000 OA
ATOM    101   O  SGN B   5      22.329  28.531  15.0360  0.00  0.00     0.000 OA
ENDBRANCH 86 96
BRANCH 82 102
ATOM    102  O4  IDS B   6      19.655  26.631  20.6680  0.00  0.00     0.000 O
BRANCH 102 106
ATOM    103  C1  IDS B   6      18.696  28.925  23.3270  0.00  0.00     0.000 C
ATOM    104  C2  IDS B   6      17.629  28.201  22.4910  0.00  0.00     0.000 C
ATOM    105  C3  IDS B   6      17.854  28.237  20.9920  0.00  0.00     0.000 C
ATOM    106  C4  IDS B   6      19.311  28.038  20.6120  0.00  0.00     0.000 C
ATOM    107  C5  IDS B   6      20.205  28.856  21.5490  0.00  0.00     0.000 C
ATOM    108  O5  IDS B   6      19.989  28.519  22.9210  0.00  0.00     0.000 O
ATOM    109   O  IDS B   6      17.370  29.477  20.5030  0.00  0.00     0.000 O
ATOM    111  HD  IDS B   6      17.388  29.996  21.1960  0.00  0.00     0.000 HD
BRANCH 104 111
ATOM    111   O  IDS B   6      17.626  26.774  22.8500  0.00  0.00     0.000 O
ATOM    112   S  IDS B   6      16.402  26.219  23.7190  0.00  0.00     0.000 S
ATOM    113   O  IDS B   6      16.425  27.016  24.9350  0.00  0.00     0.000 OA
ATOM    114   O  IDS B   6      15.174  26.346  22.9260  0.00  0.00     0.000 OA
ATOM    115   O  IDS B   6      16.847  24.854  23.9030  0.00  0.00     0.000 OA
ENDBRANCH 104 111
BRANCH 107 116
ATOM    116   C  IDS B   6      21.665  28.621  21.1840  0.00  0.00     0.000 C
ATOM    117   O  IDS B   6      22.072  29.175  20.1940  0.00  0.00     0.000 OA
ATOM    118   O  IDS B   6      22.381  27.899  21.8590  0.00  0.00     0.000 OA
ENDBRANCH 107 116
BRANCH 103 119
ATOM    119  O4  SGN B   7      18.315  30.228  23.2750  0.00  0.00     0.000 O
BRANCH 119 123
ATOM    120  C1  SGN B   7      18.374  33.516  25.8580  0.00  0.00     0.000 C
ATOM    121  C2  SGN B   7      19.709  33.084  25.2230  0.00  0.00     0.000 C
ATOM    122  C3  SGN B   7      19.460  32.158  24.0260  0.00  0.00     0.000 C
ATOM    123  C4  SGN B   7      18.576  30.997  24.4500  0.00  0.00     0.000 C
ATOM    124  C5  SGN B   7      17.277  31.530  25.0750  0.00  0.00     0.000 C
ATOM    125  O5  SGN B   7      17.559  32.396  26.1980  0.00  0.00     0.000 O
ATOM    126   O  SGN B   7      20.720  31.698  23.5230  0.00  0.00     0.000 O
ATOM    128  HD  SGN B   7      20.290  32.235  24.0480  0.00  0.00     0.000 HD
BRANCH 121 130
ATOM    128   N  SGN B   7      20.448  33.919  26.1740  0.00  0.00     0.000 N
ATOM    130  HD  SGN B   7      21.125  33.380  26.1320  0.00  0.00     0.000 HD
ATOM    130   S  SGN B   7      21.682  34.850  25.7220  0.00  0.00     0.000 S
ATOM    131   O  SGN B   7      21.198  35.594  24.6090  0.00  0.00     0.000 OA
ATOM    132   O  SGN B   7      22.180  35.518  26.8700  0.00  0.00     0.000 OA
ATOM    133   O  SGN B   7      22.757  33.756  25.4030  0.00  0.00     0.000 OA
ENDBRANCH 121 130
BRANCH 124 134
ATOM    134   C  SGN B   7      16.386  30.459  25.6310  0.00  0.00     0.000 C
ATOM    135   O  SGN B   7      15.841  30.919  26.8800  0.00  0.00     0.000 O
ATOM    136   S  SGN B   7      14.758  30.001  27.5510  0.00  0.00     0.000 S
ATOM    137   O  SGN B   7      14.443  30.608  28.8220  0.00  0.00     0.000 OA
ATOM    138   O  SGN B   7      15.388  28.707  27.6840  0.00  0.00     0.000 OA
ATOM    139   O  SGN B   7      13.669  30.045  26.5880  0.00  0.00     0.000 OA
ENDBRANCH 124 134
BRANCH 120 140
ATOM    140  O4  IDS B   8      17.432  34.309  25.3350  0.00  0.00     0.000 O
BRANCH 140 144
ATOM    141  C1  IDS B   8      15.220  35.687  22.8520  0.00  0.00     0.000 C
ATOM    142  C2  IDS B   8      16.660  35.234  22.4770  0.00  0.00     0.000 C
ATOM    143  C3  IDS B   8      17.733  35.779  23.4380  0.00  0.00     0.000 C
ATOM    144  C4  IDS B   8      17.302  35.668  24.9000  0.00  0.00     0.000 C
ATOM    145  C5  IDS B   8      15.849  36.137  25.0610  0.00  0.00     0.000 C
ATOM    146  O5  IDS B   8      14.962  35.402  24.2220  0.00  0.00     0.000 O
BRANCH 142 147
ATOM    147   O  IDS B   8      16.740  33.751  22.5230  0.00  0.00     0.000 O
ATOM    148   S  IDS B   8      16.613  32.865  21.1700  0.00  0.00     0.000 S
ATOM    149   O  IDS B   8      16.049  33.712  20.1430  0.00  0.00     0.000 OA
ATOM    150   O  IDS B   8      17.963  32.432  20.8620  0.00  0.00     0.000 OA
ATOM    151   O  IDS B   8      15.728  31.768  21.5130  0.00  0.00     0.000 OA
ENDBRANCH 142 147
BRANCH 145 152
ATOM    152   C  IDS B   8      15.331  35.958  26.4740  0.00  0.00     0.000 C
ATOM    153   O  IDS B   8      15.914  36.501  27.4050  0.00  0.00     0.000 OA
ATOM    154   O  IDS B   8      14.329  35.293  26.6680  0.00  0.00     0.000 OA
ENDBRANCH 145 152
ENDBRANCH 140 144
ENDBRANCH 120 140
ENDBRANCH 119 123
ENDBRANCH 103 119
ENDBRANCH 102 106
ENDBRANCH 82 102
ENDBRANCH 81 85
ENDBRANCH 65 81
ENDBRANCH 64 68
ENDBRANCH 41 64
ENDBRANCH 40 44
ENDBRANCH 24 40
ENDBRANCH 23 27
ENDBRANCH 1 23
TORSDOF 31
ENDMDL
MODEL 44
REMARK VINA RESULT:      -7.1      3.406      5.350
ROOT
ATOM      1  C1  SGN B   1      28.843  12.022  13.3150  0.00  0.00     0.000 C
ATOM      2  C2  SGN B   1      29.522  11.206  14.4280  0.00  0.00     0.000 C
ATOM      3  C3  SGN B   1      29.520  11.984  15.7480  0.00  0.00     0.000 C
ATOM      4  C4  SGN B   1      30.178  13.347  15.5570  0.00  0.00     0.000 C
ATOM      5  C5  SGN B   1      29.551  14.039  14.3500  0.00  0.00     0.000 C
ATOM      6  O5  SGN B   1      29.655  13.182  13.1960  0.00  0.00     0.000 O
ATOM      7   O  SGN B   1      30.188  11.245  16.7650  0.00  0.00     0.000 O
ATOM      9  HD  SGN B   1      30.820  11.356  16.1830  0.00  0.00     0.000 HD
ATOM      9   O  SGN B   1      29.988  14.129  16.7220  0.00  0.00     0.000 O
ATOM     11  HD  SGN B   1      30.620  14.239  16.1410  0.00  0.00     0.000 HD
ENDROOT
BRANCH 2 13
ATOM     11   N  SGN B   1      28.861   9.901  14.6120  0.00  0.00     0.000 N
ATOM     13  HD  SGN B   1      29.539   9.979  14.0790  0.00  0.00     0.000 HD
ATOM     13   S  SGN B   1      28.847   8.774  13.4630  0.00  0.00     0.000 S
ATOM     14   O  SGN B   1      29.582   9.215  12.3430  0.00  0.00     0.000 OA
ATOM     15   O  SGN B   1      29.164   7.520  14.0590  0.00  0.00     0.000 OA
ATOM     16   O  SGN B   1      27.315   8.771  13.1720  0.00  0.00     0.000 OA
ENDBRANCH 2 13
BRANCH 5 17
ATOM     17   C  SGN B   1      30.197  15.355  13.9920  0.00  0.00     0.000 C
ATOM     18   O  SGN B   1      29.646  15.883  12.7690  0.00  0.00     0.000 O
ATOM     19   S  SGN B   1      30.702  16.449  11.7100  0.00  0.00     0.000 S
ATOM     20   O  SGN B   1      29.904  17.120  10.7060  0.00  0.00     0.000 OA
ATOM     21   O  SGN B   1      31.531  17.344  12.4840  0.00  0.00     0.000 OA
ATOM     22   O  SGN B   1      31.399  15.283  11.2130  0.00  0.00     0.000 OA
ENDBRANCH 5 17
BRANCH 1 23
ATOM     23  O4  IDS B   2      27.614  12.231  12.7620  0.00  0.00     0.000 O
BRANCH 23 27
ATOM     24  C1  IDS B   2      25.213  14.634  15.1480  0.00  0.00     0.000 C
ATOM     25  C2  IDS B   2      25.016  13.112  15.3210  0.00  0.00     0.000 C
ATOM     26  C3  IDS B   2      26.134  12.334  14.6330  0.00  0.00     0.000 C
ATOM     27  C4  IDS B   2      26.307  12.690  13.1630  0.00  0.00     0.000 C
ATOM     28  C5  IDS B   2      26.070  14.200  12.9560  0.00  0.00     0.000 C
ATOM     29  O5  IDS B   2      26.229  14.911  14.1740  0.00  0.00     0.000 O
ATOM     30   O  IDS B   2      25.851  10.942  14.7080  0.00  0.00     0.000 O
ATOM     32  HD  IDS B   2      25.269  10.680  14.1230  0.00  0.00     0.000 HD
BRANCH 25 32
ATOM     32   O  IDS B   2      25.000  12.707  16.7490  0.00  0.00     0.000 O
ATOM     33   S  IDS B   2      23.744  11.858  17.4010  0.00  0.00     0.000 S
ATOM     34   O  IDS B   2      23.969  11.842  18.8370  0.00  0.00     0.000 OA
ATOM     35   O  IDS B   2      22.490  12.516  17.0650  0.00  0.00     0.000 OA
ATOM     36   O  IDS B   2      23.838  10.530  16.8390  0.00  0.00     0.000 OA
ENDBRANCH 25 32
BRANCH 28 37
ATOM     37   C  IDS B   2      26.894  14.916  11.8660  0.00  0.00     0.000 C
ATOM     38   O  IDS B   2      26.990  16.105  12.0570  0.00  0.00     0.000 OA
ATOM     39   O  IDS B   2      27.488  14.383  10.8960  0.00  0.00     0.000 OA
ENDBRANCH 28 37
BRANCH 24 40
ATOM     40  O4  SUS B   3      24.289  15.491  15.6290  0.00  0.00     0.000 O
BRANCH 40 44
ATOM     41  C1  SUS B   3      24.685  19.445  16.9530  0.00  0.00     0.000 C
ATOM     42  C2  SUS B   3      24.802  19.195  15.4370  0.00  0.00     0.000 C
ATOM     43  C3  SUS B   3      24.170  17.846  15.0990  0.00  0.00     0.000 C
ATOM     44  C4  SUS B   3      24.820  16.771  15.9550  0.00  0.00     0.000 C
ATOM     45  C5  SUS B   3      24.558  17.080  17.4150  0.00  0.00     0.000 C
ATOM     46  O5  SUS B   3      25.179  18.344  17.7250  0.00  0.00     0.000 O
BRANCH 42 49
ATOM     47   N  SUS B   3      25.721  20.333  15.2670  0.00  0.00     0.000 N
ATOM     49  HD  SUS B   3      25.819  20.856  15.9510  0.00  0.00     0.000 HD
ATOM     49   S  SUS B   3      25.357  21.238  13.9960  0.00  0.00     0.000 S
ATOM     50   O  SUS B   3      24.034  21.710  14.1070  0.00  0.00     0.000 OA
ATOM     51   O  SUS B   3      26.370  22.374  14.2890  0.00  0.00     0.000 OA
ATOM     52   O  SUS B   3      25.708  20.550  12.8180  0.00  0.00     0.000 OA
ENDBRANCH 42 49
BRANCH 43 53
ATOM     53   O  SUS B   3      24.420  17.571  13.6710  0.00  0.00     0.000 O
ATOM     54   S  SUS B   3      23.111  17.507  12.6790  0.00  0.00     0.000 S
ATOM     55   O  SUS B   3      22.605  18.866  12.5370  0.00  0.00     0.000 OA
ATOM     56   O  SUS B   3      23.631  16.944  11.4460  0.00  0.00     0.000 OA
ATOM     57   O  SUS B   3      22.130  16.642  13.3410  0.00  0.00     0.000 OA
ENDBRANCH 43 53
BRANCH 45 58
ATOM     58   C  SUS B   3      25.091  15.998  18.3280  0.00  0.00     0.000 C
ATOM     59   S  SUS B   3      24.804  14.992  20.6710  0.00  0.00     0.000 S
ATOM     60   O  SUS B   3      24.270  15.921  19.5050  0.00  0.00     0.000 O
ATOM     61   O  SUS B   3      25.843  15.764  21.3260  0.00  0.00     0.000 OA
ATOM     62   O  SUS B   3      23.618  14.863  21.4750  0.00  0.00     0.000 OA
ATOM     63   O  SUS B   3      25.242  13.800  20.0370  0.00  0.00     0.000 OA
ENDBRANCH 45 58
BRANCH 41 64
ATOM     64  O4  IDS B   4      23.450  19.898  17.3460  0.00  0.00     0.000 O
BRANCH 64 68
ATOM     65  C1  IDS B   4      22.116  22.479  19.5450  0.00  0.00     0.000 C
ATOM     66  C2  IDS B   4      23.624  22.396  19.2780  0.00  0.00     0.000 C
ATOM     67  C3  IDS B   4      24.205  20.996  19.3840  0.00  0.00     0.000 C
ATOM     68  C4  IDS B   4      23.301  19.935  18.7830  0.00  0.00     0.000 C
ATOM     69  C5  IDS B   4      21.864  20.217  19.2420  0.00  0.00     0.000 C
ATOM     70  O5  IDS B   4      21.459  21.500  18.7600  0.00  0.00     0.000 O
ATOM     71   O  IDS B   4      24.406  20.729  20.7570  0.00  0.00     0.000 O
ATOM     73  HD  IDS B   4      24.273  21.230  20.0640  0.00  0.00     0.000 HD
BRANCH 66 73
ATOM     73   O  IDS B   4      23.884  22.823  17.8960  0.00  0.00     0.000 O
ATOM     74   S  IDS B   4      24.372  24.345  17.6510  0.00  0.00     0.000 S
ATOM     75   O  IDS B   4      23.364  25.199  18.2420  0.00  0.00     0.000 OA
ATOM     76   O  IDS B   4      24.427  24.411  16.2130  0.00  0.00     0.000 OA
ATOM     77   O  IDS B   4      25.658  24.446  18.3000  0.00  0.00     0.000 OA
ENDBRANCH 66 73
BRANCH 69 78
ATOM     78   C  IDS B   4      20.868  19.116  18.9030  0.00  0.00     0.000 C
ATOM     79   O  IDS B   4      19.743  19.434  18.5210  0.00  0.00     0.000 OA
ATOM     80   O  IDS B   4      21.258  17.934  18.9210  0.00  0.00     0.000 OA
ENDBRANCH 69 78
BRANCH 65 81
ATOM     81  O4  SGN B   5      21.892  22.440  20.8880  0.00  0.00     0.000 O
BRANCH 81 85
ATOM     82  C1  SGN B   5      19.149  23.596  23.8510  0.00  0.00     0.000 C
ATOM     83  C2  SGN B   5      18.571  22.985  22.5650  0.00  0.00     0.000 C
ATOM     84  C3  SGN B   5      19.672  22.214  21.8240  0.00  0.00     0.000 C
ATOM     85  C4  SGN B   5      20.848  23.140  21.5690  0.00  0.00     0.000 C
ATOM     86  C5  SGN B   5      21.347  23.662  22.9140  0.00  0.00     0.000 C
ATOM     87  O5  SGN B   5      20.280  24.391  23.5510  0.00  0.00     0.000 O
ATOM     88   O  SGN B   5      19.163  21.698  20.6140  0.00  0.00     0.000 O
ATOM     90  HD  SGN B   5      19.286  21.244  21.3410  0.00  0.00     0.000 HD
BRANCH 83 92
ATOM     90   N  SGN B   5      17.398  22.294  23.1340  0.00  0.00     0.000 N
ATOM     92  HD  SGN B   5      17.511  22.132  23.9770  0.00  0.00     0.000 HD
ATOM     92   S  SGN B   5      15.945  22.828  22.7360  0.00  0.00     0.000 S
ATOM     93   O  SGN B   5      15.045  21.966  23.4430  0.00  0.00     0.000 OA
ATOM     94   O  SGN B   5      15.959  24.224  23.0100  0.00  0.00     0.000 OA
ATOM     95   O  SGN B   5      15.873  22.663  21.2340  0.00  0.00     0.000 OA
ENDBRANCH 83 92
BRANCH 86 96
ATOM     96   C  SGN B   5      22.535  24.596  22.8150  0.00  0.00     0.000 C
ATOM     97   O  SGN B   5      23.552  24.217  23.7460  0.00  0.00     0.000 O
ATOM     98   S  SGN B   5      25.031  24.054  23.1490  0.00  0.00     0.000 S
ATOM     99   O  SGN B   5      25.835  23.877  24.3340  0.00  0.00     0.000 OA
ATOM    100   O  SGN B   5      25.017  22.940  22.2710  0.00  0.00     0.000 OA
ATOM    101   O  SGN B   5      25.280  25.288  22.4770  0.00  0.00     0.000 OA
ENDBRANCH 86 96
BRANCH 82 102
ATOM    102  O4  IDS B   6      19.464  22.654  24.7840  0.00  0.00     0.000 O
BRANCH 102 106
ATOM    103  C1  IDS B   6      19.174  20.936  27.9810  0.00  0.00     0.000 C
ATOM    104  C2  IDS B   6      17.923  21.291  27.1630  0.00  0.00     0.000 C
ATOM    105  C3  IDS B   6      17.883  22.712  26.6340  0.00  0.00     0.000 C
ATOM    106  C4  IDS B   6      19.229  23.182  26.1140  0.00  0.00     0.000 C
ATOM    107  C5  IDS B   6      20.337  22.745  27.0770  0.00  0.00     0.000 C
ATOM    108  O5  IDS B   6      20.339  21.332  27.2810  0.00  0.00     0.000 O
ATOM    109   O  IDS B   6      17.422  23.557  27.6750  0.00  0.00     0.000 O
ATOM    111  HD  IDS B   6      17.602  23.116  28.3980  0.00  0.00     0.000 HD
BRANCH 104 111
ATOM    111   O  IDS B   6      17.868  20.431  25.9710  0.00  0.00     0.000 O
ATOM    112   S  IDS B   6      16.737  19.301  25.9090  0.00  0.00     0.000 S
ATOM    113   O  IDS B   6      16.979  18.475  27.0820  0.00  0.00     0.000 OA
ATOM    114   O  IDS B   6      15.425  19.958  25.8820  0.00  0.00     0.000 OA
ATOM    115   O  IDS B   6      17.105  18.669  24.6600  0.00  0.00     0.000 OA
ENDBRANCH 104 111
BRANCH 107 116
ATOM    116   C  IDS B   6      21.687  23.190  26.5280  0.00  0.00     0.000 C
ATOM    117   O  IDS B   6      22.448  22.319  26.1900  0.00  0.00     0.000 OA
ATOM    118   O  IDS B   6      21.981  24.372  26.4450  0.00  0.00     0.000 OA
ENDBRANCH 107 116
BRANCH 103 119
ATOM    119  O4  SGN B   7      18.896  21.417  29.2200  0.00  0.00     0.000 O
BRANCH 119 123
ATOM    120  C1  SGN B   7      19.732  20.313  33.1660  0.00  0.00     0.000 C
ATOM    121  C2  SGN B   7      20.876  20.932  32.3410  0.00  0.00     0.000 C
ATOM    122  C3  SGN B   7      20.321  21.637  31.0960  0.00  0.00     0.000 C
ATOM    123  C4  SGN B   7      19.446  20.675  30.3100  0.00  0.00     0.000 C
ATOM    124  C5  SGN B   7      18.343  20.109  31.2190  0.00  0.00     0.000 C
ATOM    125  O5  SGN B   7      18.910  19.454  32.3760  0.00  0.00     0.000 O
ATOM    126   O  SGN B   7      21.415  22.113  30.3040  0.00  0.00     0.000 O
ATOM    128  HD  SGN B   7      21.142  21.772  31.0520  0.00  0.00     0.000 HD
BRANCH 121 130
ATOM    128   N  SGN B   7      21.456  21.335  33.6250  0.00  0.00     0.000 N
ATOM    130  HD  SGN B   7      21.713  20.521  33.7720  0.00  0.00     0.000 HD
ATOM    130   S  SGN B   7      23.046  21.445  33.8530  0.00  0.00     0.000 S
ATOM    131   O  SGN B   7      23.523  22.237  32.7710  0.00  0.00     0.000 OA
ATOM    132   O  SGN B   7      23.278  21.848  35.1930  0.00  0.00     0.000 OA
ATOM    133   O  SGN B   7      23.441  19.930  33.8210  0.00  0.00     0.000 OA
ENDBRANCH 121 130
BRANCH 124 134
ATOM    134   C  SGN B   7      17.494  19.060  30.5640  0.00  0.00     0.000 C
ATOM    135   O  SGN B   7      17.341  17.959  31.4750  0.00  0.00     0.000 O
ATOM    136   S  SGN B   7      16.356  16.818  31.0350  0.00  0.00     0.000 S
ATOM    137   O  SGN B   7      16.447  15.790  32.0450  0.00  0.00     0.000 OA
ATOM    138   O  SGN B   7      16.833  16.383  29.7430  0.00  0.00     0.000 OA
ATOM    139   O  SGN B   7      15.074  17.505  31.0040  0.00  0.00     0.000 OA
ENDBRANCH 124 134
BRANCH 120 140
ATOM    140  O4  IDS B   8      18.774  20.947  33.8510  0.00  0.00     0.000 O
BRANCH 140 144
ATOM    141  C1  IDS B   8      16.336  23.169  35.2920  0.00  0.00     0.000 C
ATOM    142  C2  IDS B   8      17.858  23.466  35.4120  0.00  0.00     0.000 C
ATOM    143  C3  IDS B   8      18.674  22.250  35.8860  0.00  0.00     0.000 C
ATOM    144  C4  IDS B   8      18.246  20.963  35.1830  0.00  0.00     0.000 C
ATOM    145  C5  IDS B   8      16.714  20.865  35.1440  0.00  0.00     0.000 C
ATOM    146  O5  IDS B   8      16.129  21.999  34.5100  0.00  0.00     0.000 O
BRANCH 142 147
ATOM    147   O  IDS B   8      18.391  23.863  34.0820  0.00  0.00     0.000 O
ATOM    148   S  IDS B   8      19.568  24.971  33.9510  0.00  0.00     0.000 S
ATOM    149   O  IDS B   8      19.644  25.682  35.2070  0.00  0.00     0.000 OA
ATOM    150   O  IDS B   8      20.775  24.221  33.6570  0.00  0.00     0.000 OA
ATOM    151   O  IDS B   8      19.157  25.838  32.8620  0.00  0.00     0.000 OA
ENDBRANCH 142 147
BRANCH 145 152
ATOM    152   C  IDS B   8      16.226  19.657  34.3710  0.00  0.00     0.000 C
ATOM    153   O  IDS B   8      16.607  18.537  34.6950  0.00  0.00     0.000 OA
ATOM    154   O  IDS B   8      15.444  19.808  33.4490  0.00  0.00     0.000 OA
ENDBRANCH 145 152
ENDBRANCH 140 144
ENDBRANCH 120 140
ENDBRANCH 119 123
ENDBRANCH 103 119
ENDBRANCH 102 106
ENDBRANCH 82 102
ENDBRANCH 81 85
ENDBRANCH 65 81
ENDBRANCH 64 68
ENDBRANCH 41 64
ENDBRANCH 40 44
ENDBRANCH 24 40
ENDBRANCH 23 27
ENDBRANCH 1 23
TORSDOF 31
ENDMDL
MODEL 45
REMARK VINA RESULT:      -7.0      7.867     11.328
ROOT
ATOM      1  C1  SGN B   1      28.233  10.836  14.3870  0.00  0.00     0.000 C
ATOM      2  C2  SGN B   1      29.553  10.433  15.0650  0.00  0.00     0.000 C
ATOM      3  C3  SGN B   1      30.220   9.277  14.3100  0.00  0.00     0.000 C
ATOM      4  C4  SGN B   1      29.256   8.101  14.1920  0.00  0.00     0.000 C
ATOM      5  C5  SGN B   1      27.922   8.601  13.6450  0.00  0.00     0.000 C
ATOM      6  O5  SGN B   1      27.429   9.668  14.4790  0.00  0.00     0.000 O
ATOM      7   O  SGN B   1      31.418   8.877  14.9650  0.00  0.00     0.000 O
ATOM      9  HD  SGN B   1      30.823   8.726  15.5770  0.00  0.00     0.000 HD
ATOM      9   O  SGN B   1      29.807   7.128  13.3230  0.00  0.00     0.000 O
ATOM     11  HD  SGN B   1      29.212   6.977  13.9340  0.00  0.00     0.000 HD
ENDROOT
BRANCH 2 13
ATOM     11   N  SGN B   1      29.370  11.478  16.0890  0.00  0.00     0.000 N
ATOM     13  HD  SGN B   1      29.586  11.690  15.2780  0.00  0.00     0.000 HD
ATOM     13   S  SGN B   1      30.149  12.885  16.0300  0.00  0.00     0.000 S
ATOM     14   O  SGN B   1      30.943  12.952  14.8660  0.00  0.00     0.000 OA
ATOM     15   O  SGN B   1      29.216  13.927  16.3020  0.00  0.00     0.000 OA
ATOM     16   O  SGN B   1      31.027  12.708  17.3070  0.00  0.00     0.000 OA
ENDBRANCH 2 13
BRANCH 5 17
ATOM     17   C  SGN B   1      26.847   7.544  13.5850  0.00  0.00     0.000 C
ATOM     18   O  SGN B   1      25.869   7.861  12.5740  0.00  0.00     0.000 O
ATOM     19   S  SGN B   1      24.338   7.686  13.0010  0.00  0.00     0.000 S
ATOM     20   O  SGN B   1      23.587   7.831  11.7720  0.00  0.00     0.000 OA
ATOM     21   O  SGN B   1      24.278   6.356  13.5610  0.00  0.00     0.000 OA
ATOM     22   O  SGN B   1      24.090   8.740  13.9600  0.00  0.00     0.000 OA
ENDBRANCH 5 17
BRANCH 1 23
ATOM     23  O4  IDS B   2      27.756  11.678  13.4260  0.00  0.00     0.000 O
BRANCH 23 27
ATOM     24  C1  IDS B   2      25.737  15.156  14.4520  0.00  0.00     0.000 C
ATOM     25  C2  IDS B   2      24.947  13.843  14.6480  0.00  0.00     0.000 C
ATOM     26  C3  IDS B   2      25.866  12.630  14.5300  0.00  0.00     0.000 C
ATOM     27  C4  IDS B   2      26.658  12.593  13.2310  0.00  0.00     0.000 C
ATOM     28  C5  IDS B   2      27.081  14.020  12.8300  0.00  0.00     0.000 C
ATOM     29  O5  IDS B   2      27.054  14.891  13.9510  0.00  0.00     0.000 O
ATOM     30   O  IDS B   2      25.084  11.443  14.5920  0.00  0.00     0.000 O
ATOM     32  HD  IDS B   2      24.690  11.255  13.8440  0.00  0.00     0.000 HD
BRANCH 25 32
ATOM     32   O  IDS B   2      24.287  13.779  15.9760  0.00  0.00     0.000 O
ATOM     33   S  IDS B   2      22.646  13.707  16.1310  0.00  0.00     0.000 S
ATOM     34   O  IDS B   2      22.365  13.882  17.5470  0.00  0.00     0.000 OA
ATOM     35   O  IDS B   2      22.038  14.762  15.3330  0.00  0.00     0.000 OA
ATOM     36   O  IDS B   2      22.269  12.388  15.6790  0.00  0.00     0.000 OA
ENDBRANCH 25 32
BRANCH 28 37
ATOM     37   C  IDS B   2      28.435  14.196  12.1110  0.00  0.00     0.000 C
ATOM     38   O  IDS B   2      28.399  13.845  10.9550  0.00  0.00     0.000 OA
ATOM     39   O  IDS B   2      29.481  14.703  12.5850  0.00  0.00     0.000 OA
ENDBRANCH 28 37
BRANCH 24 40
ATOM     40  O4  SUS B   3      25.087  16.339  14.4530  0.00  0.00     0.000 O
BRANCH 40 44
ATOM     41  C1  SUS B   3      26.390  20.150  15.6020  0.00  0.00     0.000 C
ATOM     42  C2  SUS B   3      27.012  19.548  14.3270  0.00  0.00     0.000 C
ATOM     43  C3  SUS B   3      26.110  18.431  13.8070  0.00  0.00     0.000 C
ATOM     44  C4  SUS B   3      25.885  17.421  14.9210  0.00  0.00     0.000 C
ATOM     45  C5  SUS B   3      25.189  18.112  16.0750  0.00  0.00     0.000 C
ATOM     46  O5  SUS B   3      26.060  19.149  16.5710  0.00  0.00     0.000 O
BRANCH 42 49
ATOM     47   N  SUS B   3      27.290  20.568  13.3010  0.00  0.00     0.000 N
ATOM     49  HD  SUS B   3      27.001  20.402  12.5020  0.00  0.00     0.000 HD
ATOM     49   S  SUS B   3      28.846  20.936  13.2020  0.00  0.00     0.000 S
ATOM     50   O  SUS B   3      29.597  19.775  12.9300  0.00  0.00     0.000 OA
ATOM     51   O  SUS B   3      28.740  21.826  11.9380  0.00  0.00     0.000 OA
ATOM     52   O  SUS B   3      29.216  21.706  14.3230  0.00  0.00     0.000 OA
ENDBRANCH 42 49
BRANCH 43 53
ATOM     53   O  SUS B   3      26.796  17.782  12.6730  0.00  0.00     0.000 O
ATOM     54   S  SUS B   3      26.059  17.860  11.2060  0.00  0.00     0.000 S
ATOM     55   O  SUS B   3      26.157  19.237  10.7400  0.00  0.00     0.000 OA
ATOM     56   O  SUS B   3      26.796  16.912  10.3900  0.00  0.00     0.000 OA
ATOM     57   O  SUS B   3      24.662  17.472  11.4220  0.00  0.00     0.000 OA
ENDBRANCH 43 53
BRANCH 45 58
ATOM     58   C  SUS B   3      24.840  17.146  17.1870  0.00  0.00     0.000 C
ATOM     59   S  SUS B   3      24.894  16.878  19.7380  0.00  0.00     0.000 S
ATOM     60   O  SUS B   3      25.005  17.801  18.4560  0.00  0.00     0.000 O
ATOM     61   O  SUS B   3      26.165  16.185  19.8190  0.00  0.00     0.000 OA
ATOM     62   O  SUS B   3      24.735  17.870  20.7680  0.00  0.00     0.000 OA
ATOM     63   O  SUS B   3      23.762  16.050  19.5130  0.00  0.00     0.000 OA
ENDBRANCH 45 58
BRANCH 41 64
ATOM     64  O4  IDS B   4      25.380  21.048  15.3550  0.00  0.00     0.000 O
BRANCH 64 68
ATOM     65  C1  IDS B   4      23.717  24.239  15.9250  0.00  0.00     0.000 C
ATOM     66  C2  IDS B   4      25.229  24.106  16.1440  0.00  0.00     0.000 C
ATOM     67  C3  IDS B   4      25.643  22.879  16.9380  0.00  0.00     0.000 C
ATOM     68  C4  IDS B   4      24.853  21.640  16.5630  0.00  0.00     0.000 C
ATOM     69  C5  IDS B   4      23.373  22.031  16.4560  0.00  0.00     0.000 C
ATOM     70  O5  IDS B   4      23.219  23.011  15.4260  0.00  0.00     0.000 O
ATOM     71   O  IDS B   4      25.444  23.177  18.3050  0.00  0.00     0.000 O
ATOM     73  HD  IDS B   4      25.544  23.362  17.4650  0.00  0.00     0.000 HD
BRANCH 66 73
ATOM     73   O  IDS B   4      25.886  23.967  14.8370  0.00  0.00     0.000 O
ATOM     74   S  IDS B   4      27.046  25.028  14.4540  0.00  0.00     0.000 S
ATOM     75   O  IDS B   4      26.450  26.342  14.5610  0.00  0.00     0.000 OA
ATOM     76   O  IDS B   4      27.370  24.638  13.1050  0.00  0.00     0.000 OA
ATOM     77   O  IDS B   4      28.105  24.802  15.4090  0.00  0.00     0.000 OA
ENDBRANCH 66 73
BRANCH 69 78
ATOM     78   C  IDS B   4      22.420  20.854  16.3010  0.00  0.00     0.000 C
ATOM     79   O  IDS B   4      22.425  20.224  15.2440  0.00  0.00     0.000 OA
ATOM     80   O  IDS B   4      21.744  20.502  17.2850  0.00  0.00     0.000 OA
ENDBRANCH 69 78
BRANCH 65 81
ATOM     81  O4  SGN B   5      23.136  24.721  17.0580  0.00  0.00     0.000 O
BRANCH 81 85
ATOM     82  C1  SGN B   5      19.485  26.235  18.4780  0.00  0.00     0.000 C
ATOM     83  C2  SGN B   5      19.819  24.777  18.8280  0.00  0.00     0.000 C
ATOM     84  C3  SGN B   5      21.325  24.540  18.6540  0.00  0.00     0.000 C
ATOM     85  C4  SGN B   5      21.733  24.924  17.2420  0.00  0.00     0.000 C
ATOM     86  C5  SGN B   5      21.374  26.391  17.0220  0.00  0.00     0.000 C
ATOM     87  O5  SGN B   5      19.951  26.547  17.1790  0.00  0.00     0.000 O
ATOM     88   O  SGN B   5      21.632  23.188  18.9180  0.00  0.00     0.000 O
ATOM     90  HD  SGN B   5      21.763  23.849  19.4630  0.00  0.00     0.000 HD
BRANCH 83 92
ATOM     90   N  SGN B   5      18.428  24.869  19.3140  0.00  0.00     0.000 N
ATOM     92  HD  SGN B   5      17.886  25.065  18.6670  0.00  0.00     0.000 HD
ATOM     92   S  SGN B   5      17.906  23.740  20.3170  0.00  0.00     0.000 S
ATOM     93   O  SGN B   5      16.548  24.106  20.5870  0.00  0.00     0.000 OA
ATOM     94   O  SGN B   5      18.198  22.499  19.6860  0.00  0.00     0.000 OA
ATOM     95   O  SGN B   5      18.807  23.855  21.5270  0.00  0.00     0.000 OA
ENDBRANCH 83 92
BRANCH 86 96
ATOM     96   C  SGN B   5      21.737  26.920  15.6500  0.00  0.00     0.000 C
ATOM     97   O  SGN B   5      21.027  26.208  14.6330  0.00  0.00     0.000 O
ATOM     98   S  SGN B   5      20.245  27.104  13.5580  0.00  0.00     0.000 S
ATOM     99   O  SGN B   5      19.819  26.131  12.5820  0.00  0.00     0.000 OA
ATOM    100   O  SGN B   5      19.187  27.761  14.2390  0.00  0.00     0.000 OA
ATOM    101   O  SGN B   5      21.233  28.007  13.0630  0.00  0.00     0.000 OA
ENDBRANCH 86 96
BRANCH 82 102
ATOM    102  O4  IDS B   6      19.984  27.120  19.3870  0.00  0.00     0.000 O
BRANCH 102 106
ATOM    103  C1  IDS B   6      19.815  29.758  21.8910  0.00  0.00     0.000 C
ATOM    104  C2  IDS B   6      18.887  28.536  21.9730  0.00  0.00     0.000 C
ATOM    105  C3  IDS B   6      18.199  28.163  20.6740  0.00  0.00     0.000 C
ATOM    106  C4  IDS B   6      19.116  28.280  19.4700  0.00  0.00     0.000 C
ATOM    107  C5  IDS B   6      19.937  29.569  19.5690  0.00  0.00     0.000 C
ATOM    108  O5  IDS B   6      20.686  29.632  20.7840  0.00  0.00     0.000 O
ATOM    109   O  IDS B   6      17.060  28.995  20.5230  0.00  0.00     0.000 O
ATOM    111  HD  IDS B   6      17.242  29.687  21.0110  0.00  0.00     0.000 HD
BRANCH 104 111
ATOM    111   O  IDS B   6      19.681  27.355  22.3450  0.00  0.00     0.000 O
ATOM    112   S  IDS B   6      19.409  26.683  23.7720  0.00  0.00     0.000 S
ATOM    113   O  IDS B   6      19.658  27.747  24.7320  0.00  0.00     0.000 OA
ATOM    114   O  IDS B   6      18.039  26.157  23.7840  0.00  0.00     0.000 OA
ATOM    115   O  IDS B   6      20.433  25.661  23.7490  0.00  0.00     0.000 OA
ENDBRANCH 104 111
BRANCH 107 116
ATOM    116   C  IDS B   6      20.880  29.658  18.3760  0.00  0.00     0.000 C
ATOM    117   O  IDS B   6      20.373  29.835  17.2970  0.00  0.00     0.000 OA
ATOM    118   O  IDS B   6      22.088  29.546  18.5100  0.00  0.00     0.000 OA
ENDBRANCH 107 116
BRANCH 103 119
ATOM    119  O4  SGN B   7      18.967  30.813  22.0070  0.00  0.00     0.000 O
BRANCH 119 123
ATOM    120  C1  SGN B   7      19.045  34.584  23.8140  0.00  0.00     0.000 C
ATOM    121  C2  SGN B   7      19.791  34.418  22.4760  0.00  0.00     0.000 C
ATOM    122  C3  SGN B   7      19.339  33.137  21.7630  0.00  0.00     0.000 C
ATOM    123  C4  SGN B   7      19.484  31.949  22.7000  0.00  0.00     0.000 C
ATOM    124  C5  SGN B   7      18.713  32.214  24.0030  0.00  0.00     0.000 C
ATOM    125  O5  SGN B   7      19.171  33.428  24.6400  0.00  0.00     0.000 O
ATOM    126   O  SGN B   7      20.121  32.964  20.5760  0.00  0.00     0.000 O
ATOM    128  HD  SGN B   7      19.889  33.474  21.2360  0.00  0.00     0.000 HD
BRANCH 121 130
ATOM    128   N  SGN B   7      20.659  35.592  22.5990  0.00  0.00     0.000 N
ATOM    130  HD  SGN B   7      21.160  35.298  21.9570  0.00  0.00     0.000 HD
ATOM    130   S  SGN B   7      20.661  36.777  21.5080  0.00  0.00     0.000 S
ATOM    131   O  SGN B   7      19.292  37.129  21.3390  0.00  0.00     0.000 OA
ATOM    132   O  SGN B   7      21.608  37.752  21.9100  0.00  0.00     0.000 OA
ATOM    133   O  SGN B   7      21.336  36.044  20.2990  0.00  0.00     0.000 OA
ENDBRANCH 121 130
BRANCH 124 134
ATOM    134   C  SGN B   7      18.890  31.146  25.0410  0.00  0.00     0.000 C
ATOM    135   O  SGN B   7      18.264  31.583  26.2600  0.00  0.00     0.000 O
ATOM    136   S  SGN B   7      18.205  30.538  27.4310  0.00  0.00     0.000 S
ATOM    137   O  SGN B   7      17.637  31.228  28.5640  0.00  0.00     0.000 OA
ATOM    138   O  SGN B   7      19.576  30.133  27.6450  0.00  0.00     0.000 OA
ATOM    139   O  SGN B   7      17.349  29.499  26.8800  0.00  0.00     0.000 OA
ENDBRANCH 124 134
BRANCH 120 140
ATOM    140  O4  IDS B   8      17.746  34.837  24.0060  0.00  0.00     0.000 O
BRANCH 140 144
ATOM    141  C1  IDS B   8      14.183  34.614  23.5390  0.00  0.00     0.000 C
ATOM    142  C2  IDS B   8      15.155  34.540  22.3260  0.00  0.00     0.000 C
ATOM    143  C3  IDS B   8      16.210  35.662  22.3300  0.00  0.00     0.000 C
ATOM    144  C4  IDS B   8      16.809  35.882  23.7180  0.00  0.00     0.000 C
ATOM    145  C5  IDS B   8      15.696  35.899  24.7780  0.00  0.00     0.000 C
ATOM    146  O5  IDS B   8      14.924  34.701  24.7500  0.00  0.00     0.000 O
BRANCH 142 147
ATOM    147   O  IDS B   8      15.888  33.247  22.3560  0.00  0.00     0.000 O
ATOM    148   S  IDS B   8      15.414  31.997  21.4380  0.00  0.00     0.000 S
ATOM    149   O  IDS B   8      14.064  32.264  20.9960  0.00  0.00     0.000 OA
ATOM    150   O  IDS B   8      16.363  31.939  20.3420  0.00  0.00     0.000 OA
ATOM    151   O  IDS B   8      15.479  30.838  22.3090  0.00  0.00     0.000 OA
ENDBRANCH 142 147
BRANCH 145 152
ATOM    152   C  IDS B   8      16.236  36.015  26.1890  0.00  0.00     0.000 C
ATOM    153   O  IDS B   8      16.818  37.038  26.5310  0.00  0.00     0.000 OA
ATOM    154   O  IDS B   8      16.069  35.099  26.9740  0.00  0.00     0.000 OA
ENDBRANCH 145 152
ENDBRANCH 140 144
ENDBRANCH 120 140
ENDBRANCH 119 123
ENDBRANCH 103 119
ENDBRANCH 102 106
ENDBRANCH 82 102
ENDBRANCH 81 85
ENDBRANCH 65 81
ENDBRANCH 64 68
ENDBRANCH 41 64
ENDBRANCH 40 44
ENDBRANCH 24 40
ENDBRANCH 23 27
ENDBRANCH 1 23
TORSDOF 31
ENDMDL
MODEL 46
REMARK VINA RESULT:      -7.0      5.332      9.149
ROOT
ATOM      1  C1  SGN B   1      34.438  19.621   8.7580  0.00  0.00     0.000 C
ATOM      2  C2  SGN B   1      35.761  20.016   8.0810  0.00  0.00     0.000 C
ATOM      3  C3  SGN B   1      35.537  21.144   7.0690  0.00  0.00     0.000 C
ATOM      4  C4  SGN B   1      34.476  20.737   6.0520  0.00  0.00     0.000 C
ATOM      5  C5  SGN B   1      33.244  20.223   6.7950  0.00  0.00     0.000 C
ATOM      6  O5  SGN B   1      33.629  19.157   7.6850  0.00  0.00     0.000 O
ATOM      7   O  SGN B   1      36.755  21.477   6.4130  0.00  0.00     0.000 O
ATOM      9  HD  SGN B   1      36.653  20.648   6.1860  0.00  0.00     0.000 HD
ATOM      9   O  SGN B   1      34.134  21.855   5.2550  0.00  0.00     0.000 O
ATOM     11  HD  SGN B   1      34.032  21.026   5.0270  0.00  0.00     0.000 HD
ENDROOT
BRANCH 2 13
ATOM     11   N  SGN B   1      36.703  19.091   8.7400  0.00  0.00     0.000 N
ATOM     13  HD  SGN B   1      36.201  19.617   9.2100  0.00  0.00     0.000 HD
ATOM     13   S  SGN B   1      37.355  19.407  10.1760  0.00  0.00     0.000 S
ATOM     14   O  SGN B   1      36.853  20.625  10.6800  0.00  0.00     0.000 OA
ATOM     15   O  SGN B   1      37.275  18.232  10.9760  0.00  0.00     0.000 OA
ATOM     16   O  SGN B   1      38.840  19.552   9.7190  0.00  0.00     0.000 OA
ENDBRANCH 2 13
BRANCH 5 17
ATOM     17   C  SGN B   1      32.162  19.685   5.8910  0.00  0.00     0.000 C
ATOM     18   O  SGN B   1      32.730  19.087   4.7080  0.00  0.00     0.000 O
ATOM     19   S  SGN B   1      32.028  19.470   3.3230  0.00  0.00     0.000 S
ATOM     20   O  SGN B   1      32.615  18.578   2.3460  0.00  0.00     0.000 OA
ATOM     21   O  SGN B   1      30.624  19.225   3.5600  0.00  0.00     0.000 OA
ATOM     22   O  SGN B   1      32.353  20.863   3.1070  0.00  0.00     0.000 OA
ENDBRANCH 5 17
BRANCH 1 23
ATOM     23  O4  IDS B   2      33.672  19.938   9.8400  0.00  0.00     0.000 O
BRANCH 23 27
ATOM     24  C1  IDS B   2      31.200  19.756  13.1690  0.00  0.00     0.000 C
ATOM     25  C2  IDS B   2      32.627  20.288  13.4270  0.00  0.00     0.000 C
ATOM     26  C3  IDS B   2      33.341  20.593  12.1130  0.00  0.00     0.000 C
ATOM     27  C4  IDS B   2      33.371  19.413  11.1500  0.00  0.00     0.000 C
ATOM     28  C5  IDS B   2      32.045  18.630  11.2340  0.00  0.00     0.000 C
ATOM     29  O5  IDS B   2      31.014  19.437  11.7840  0.00  0.00     0.000 O
ATOM     30   O  IDS B   2      34.689  20.959  12.3860  0.00  0.00     0.000 O
ATOM     32  HD  IDS B   2      35.202  20.279  12.5420  0.00  0.00     0.000 HD
BRANCH 25 32
ATOM     32   O  IDS B   2      32.625  21.532  14.2350  0.00  0.00     0.000 O
ATOM     33   S  IDS B   2      33.395  21.626  15.6910  0.00  0.00     0.000 S
ATOM     34   O  IDS B   2      32.993  22.894  16.2810  0.00  0.00     0.000 OA
ATOM     35   O  IDS B   2      32.995  20.501  16.5240  0.00  0.00     0.000 OA
ATOM     36   O  IDS B   2      34.807  21.612  15.3880  0.00  0.00     0.000 OA
ENDBRANCH 25 32
BRANCH 28 37
ATOM     37   C  IDS B   2      31.512  17.975   9.9430  0.00  0.00     0.000 C
ATOM     38   O  IDS B   2      30.730  18.680   9.3500  0.00  0.00     0.000 OA
ATOM     39   O  IDS B   2      31.856  16.868   9.4610  0.00  0.00     0.000 OA
ENDBRANCH 28 37
BRANCH 24 40
ATOM     40  O4  SUS B   3      30.430  19.366  14.2070  0.00  0.00     0.000 O
BRANCH 40 44
ATOM     41  C1  SUS B   3      26.264  19.347  14.6360  0.00  0.00     0.000 C
ATOM     42  C2  SUS B   3      26.882  18.280  13.7100  0.00  0.00     0.000 C
ATOM     43  C3  SUS B   3      28.364  18.123  14.0420  0.00  0.00     0.000 C
ATOM     44  C4  SUS B   3      29.035  19.485  13.9520  0.00  0.00     0.000 C
ATOM     45  C5  SUS B   3      28.403  20.412  14.9690  0.00  0.00     0.000 C
ATOM     46  O5  SUS B   3      27.010  20.569  14.6320  0.00  0.00     0.000 O
BRANCH 42 49
ATOM     47   N  SUS B   3      25.681  18.250  12.8570  0.00  0.00     0.000 N
ATOM     49  HD  SUS B   3      24.987  18.676  13.1510  0.00  0.00     0.000 HD
ATOM     49   S  SUS B   3      25.228  16.760  12.4810  0.00  0.00     0.000 S
ATOM     50   O  SUS B   3      24.993  16.019  13.6570  0.00  0.00     0.000 OA
ATOM     51   O  SUS B   3      23.890  17.145  11.8010  0.00  0.00     0.000 OA
ATOM     52   O  SUS B   3      26.128  16.222  11.5390  0.00  0.00     0.000 OA
ENDBRANCH 42 49
BRANCH 43 53
ATOM     53   O  SUS B   3      28.957  17.204  13.0520  0.00  0.00     0.000 O
ATOM     54   S  SUS B   3      29.464  15.739  13.5980  0.00  0.00     0.000 S
ATOM     55   O  SUS B   3      28.278  14.957  13.9140  0.00  0.00     0.000 OA
ATOM     56   O  SUS B   3      30.244  15.203  12.4960  0.00  0.00     0.000 OA
ATOM     57   O  SUS B   3      30.264  15.998  14.7990  0.00  0.00     0.000 OA
ENDBRANCH 43 53
BRANCH 45 58
ATOM     58   C  SUS B   3      29.087  21.761  15.0090  0.00  0.00     0.000 C
ATOM     59   S  SUS B   3      28.643  24.253  15.4310  0.00  0.00     0.000 S
ATOM     60   O  SUS B   3      28.172  22.744  15.5210  0.00  0.00     0.000 O
ATOM     61   O  SUS B   3      28.433  24.634  14.0470  0.00  0.00     0.000 OA
ATOM     62   O  SUS B   3      27.710  24.879  16.3280  0.00  0.00     0.000 OA
ATOM     63   O  SUS B   3      29.996  24.255  15.8630  0.00  0.00     0.000 OA
ENDBRANCH 45 58
BRANCH 41 64
ATOM     64  O4  IDS B   4      25.958  18.880  15.8910  0.00  0.00     0.000 O
BRANCH 64 68
ATOM     65  C1  IDS B   4      24.075  18.273  18.9510  0.00  0.00     0.000 C
ATOM     66  C2  IDS B   4      23.500  17.850  17.5930  0.00  0.00     0.000 C
ATOM     67  C3  IDS B   4      23.603  18.911  16.5100  0.00  0.00     0.000 C
ATOM     68  C4  IDS B   4      24.925  19.655  16.5380  0.00  0.00     0.000 C
ATOM     69  C5  IDS B   4      25.246  20.003  17.9980  0.00  0.00     0.000 C
ATOM     70  O5  IDS B   4      25.376  18.796  18.7520  0.00  0.00     0.000 O
ATOM     71   O  IDS B   4      22.540  19.819  16.7090  0.00  0.00     0.000 O
ATOM     73  HD  IDS B   4      22.964  19.070  16.8040  0.00  0.00     0.000 HD
BRANCH 66 73
ATOM     73   O  IDS B   4      24.266  16.702  17.0910  0.00  0.00     0.000 O
ATOM     74   S  IDS B   4      23.517  15.271  17.0020  0.00  0.00     0.000 S
ATOM     75   O  IDS B   4      23.025  14.983  18.3320  0.00  0.00     0.000 OA
ATOM     76   O  IDS B   4      24.585  14.404  16.5710  0.00  0.00     0.000 OA
ATOM     77   O  IDS B   4      22.465  15.446  16.0300  0.00  0.00     0.000 OA
ENDBRANCH 66 73
BRANCH 69 78
ATOM     78   C  IDS B   4      26.431  20.943  18.1750  0.00  0.00     0.000 C
ATOM     79   O  IDS B   4      26.228  22.156  18.1750  0.00  0.00     0.000 OA
ATOM     80   O  IDS B   4      27.548  20.453  18.4200  0.00  0.00     0.000 OA
ENDBRANCH 69 78
BRANCH 65 81
ATOM     81  O4  SGN B   5      23.182  19.077  19.5910  0.00  0.00     0.000 O
BRANCH 81 85
ATOM     82  C1  SGN B   5      21.780  19.980  23.4460  0.00  0.00     0.000 C
ATOM     83  C2  SGN B   5      22.740  20.989  22.7980  0.00  0.00     0.000 C
ATOM     84  C3  SGN B   5      22.777  20.762  21.2810  0.00  0.00     0.000 C
ATOM     85  C4  SGN B   5      23.151  19.317  21.0000  0.00  0.00     0.000 C
ATOM     86  C5  SGN B   5      22.117  18.416  21.6700  0.00  0.00     0.000 C
ATOM     87  O5  SGN B   5      22.142  18.660  23.0890  0.00  0.00     0.000 O
ATOM     88   O  SGN B   5      23.700  21.647  20.6860  0.00  0.00     0.000 O
ATOM     90  HD  SGN B   5      22.840  21.744  20.6850  0.00  0.00     0.000 HD
BRANCH 83 92
ATOM     90   N  SGN B   5      22.809  21.491  24.1840  0.00  0.00     0.000 N
ATOM     92  HD  SGN B   5      23.261  20.951  24.6880  0.00  0.00     0.000 HD
ATOM     92   S  SGN B   5      23.118  23.043  24.4070  0.00  0.00     0.000 S
ATOM     93   O  SGN B   5      23.123  23.203  25.8300  0.00  0.00     0.000 OA
ATOM     94   O  SGN B   5      24.295  23.314  23.6550  0.00  0.00     0.000 OA
ATOM     95   O  SGN B   5      21.974  23.765  23.7300  0.00  0.00     0.000 OA
ENDBRANCH 83 92
BRANCH 86 96
ATOM     96   C  SGN B   5      22.357  16.935  21.4620  0.00  0.00     0.000 C
ATOM     97   O  SGN B   5      23.562  16.525  22.1150  0.00  0.00     0.000 O
ATOM     98   S  SGN B   5      23.444  15.247  23.0760  0.00  0.00     0.000 S
ATOM     99   O  SGN B   5      24.821  14.970  23.4070  0.00  0.00     0.000 OA
ATOM    100   O  SGN B   5      22.632  15.616  24.1790  0.00  0.00     0.000 OA
ATOM    101   O  SGN B   5      22.847  14.242  22.2580  0.00  0.00     0.000 OA
ENDBRANCH 86 96
BRANCH 82 102
ATOM    102  O4  IDS B   6      20.476  20.217  23.1260  0.00  0.00     0.000 O
BRANCH 102 106
ATOM    103  C1  IDS B   6      17.058  20.076  24.3720  0.00  0.00     0.000 C
ATOM    104  C2  IDS B   6      18.249  20.080  25.3430  0.00  0.00     0.000 C
ATOM    105  C3  IDS B   6      19.367  19.117  24.9940  0.00  0.00     0.000 C
ATOM    106  C4  IDS B   6      19.663  19.078  23.5050  0.00  0.00     0.000 C
ATOM    107  C5  IDS B   6      18.350  19.059  22.7160  0.00  0.00     0.000 C
ATOM    108  O5  IDS B   6      17.520  20.176  23.0380  0.00  0.00     0.000 O
ATOM    109   O  IDS B   6      19.006  17.831  25.4690  0.00  0.00     0.000 O
ATOM    111  HD  IDS B   6      18.142  17.864  25.5250  0.00  0.00     0.000 HD
BRANCH 104 111
ATOM    111   O  IDS B   6      18.869  21.414  25.3350  0.00  0.00     0.000 O
ATOM    112   S  IDS B   6      19.692  21.870  26.6310  0.00  0.00     0.000 S
ATOM    113   O  IDS B   6      18.730  21.797  27.7190  0.00  0.00     0.000 OA
ATOM    114   O  IDS B   6      20.853  20.984  26.7790  0.00  0.00     0.000 OA
ATOM    115   O  IDS B   6      20.027  23.220  26.2320  0.00  0.00     0.000 OA
ENDBRANCH 104 111
BRANCH 107 116
ATOM    116   C  IDS B   6      18.658  19.057  21.2250  0.00  0.00     0.000 C
ATOM    117   O  IDS B   6      18.839  17.982  20.7100  0.00  0.00     0.000 OA
ATOM    118   O  IDS B   6      18.727  20.096  20.5880  0.00  0.00     0.000 OA
ENDBRANCH 107 116
BRANCH 103 119
ATOM    119  O4  SGN B   7      16.312  19.020  24.7840  0.00  0.00     0.000 O
BRANCH 119 123
ATOM    120  C1  SGN B   7      12.238  18.166  25.1940  0.00  0.00     0.000 C
ATOM    121  C2  SGN B   7      12.857  18.031  23.7900  0.00  0.00     0.000 C
ATOM    122  C3  SGN B   7      14.388  17.979  23.8810  0.00  0.00     0.000 C
ATOM    123  C4  SGN B   7      14.897  19.176  24.6650  0.00  0.00     0.000 C
ATOM    124  C5  SGN B   7      14.217  19.227  26.0420  0.00  0.00     0.000 C
ATOM    125  O5  SGN B   7      12.778  19.276  25.9100  0.00  0.00     0.000 O
ATOM    126   O  SGN B   7      14.932  17.952  22.5560  0.00  0.00     0.000 O
ATOM    128  HD  SGN B   7      14.234  17.898  23.0660  0.00  0.00     0.000 HD
BRANCH 121 130
ATOM    128   N  SGN B   7      11.811  17.049  23.4940  0.00  0.00     0.000 N
ATOM    130  HD  SGN B   7      11.217  17.679  23.4680  0.00  0.00     0.000 HD
ATOM    130   S  SGN B   7      11.143  16.918  22.0350  0.00  0.00     0.000 S
ATOM    131   O  SGN B   7      12.239  16.831  21.1310  0.00  0.00     0.000 OA
ATOM    132   O  SGN B   7      10.168  15.888  22.0810  0.00  0.00     0.000 OA
ATOM    133   O  SGN B   7      10.315  18.246  21.9850  0.00  0.00     0.000 OA
ENDBRANCH 121 130
BRANCH 124 134
ATOM    134   C  SGN B   7      14.568  20.442  26.8490  0.00  0.00     0.000 C
ATOM    135   O  SGN B   7      14.027  20.286  28.1720  0.00  0.00     0.000 O
ATOM    136   S  SGN B   7      14.417  21.387  29.2220  0.00  0.00     0.000 S
ATOM    137   O  SGN B   7      13.681  21.078  30.4260  0.00  0.00     0.000 OA
ATOM    138   O  SGN B   7      14.019  22.640  28.6230  0.00  0.00     0.000 OA
ATOM    139   O  SGN B   7      15.855  21.207  29.3450  0.00  0.00     0.000 OA
ENDBRANCH 124 134
BRANCH 120 140
ATOM    140  O4  IDS B   8      12.231  17.264  26.1820  0.00  0.00     0.000 O
BRANCH 140 144
ATOM    141  C1  IDS B   8      12.729  15.172  29.0680  0.00  0.00     0.000 C
ATOM    142  C2  IDS B   8      13.777  15.212  27.9200  0.00  0.00     0.000 C
ATOM    143  C3  IDS B   8      13.148  15.052  26.5230  0.00  0.00     0.000 C
ATOM    144  C4  IDS B   8      11.878  15.888  26.3680  0.00  0.00     0.000 C
ATOM    145  C5  IDS B   8      10.988  15.735  27.6100  0.00  0.00     0.000 C
ATOM    146  O5  IDS B   8      11.681  16.096  28.8030  0.00  0.00     0.000 O
BRANCH 142 147
ATOM    147   O  IDS B   8      14.482  16.520  27.9380  0.00  0.00     0.000 O
ATOM    148   S  IDS B   8      16.070  16.609  28.2530  0.00  0.00     0.000 S
ATOM    149   O  IDS B   8      16.469  15.356  28.8520  0.00  0.00     0.000 OA
ATOM    150   O  IDS B   8      16.707  16.848  26.9710  0.00  0.00     0.000 OA
ATOM    151   O  IDS B   8      16.215  17.720  29.1750  0.00  0.00     0.000 OA
ENDBRANCH 142 147
BRANCH 145 152
ATOM    152   C  IDS B   8       9.758  16.619  27.5590  0.00  0.00     0.000 C
ATOM    153   O  IDS B   8       8.855  16.353  26.7730  0.00  0.00     0.000 OA
ATOM    154   O  IDS B   8       9.670  17.572  28.3120  0.00  0.00     0.000 OA
ENDBRANCH 145 152
ENDBRANCH 140 144
ENDBRANCH 120 140
ENDBRANCH 119 123
ENDBRANCH 103 119
ENDBRANCH 102 106
ENDBRANCH 82 102
ENDBRANCH 81 85
ENDBRANCH 65 81
ENDBRANCH 64 68
ENDBRANCH 41 64
ENDBRANCH 40 44
ENDBRANCH 24 40
ENDBRANCH 23 27
ENDBRANCH 1 23
TORSDOF 31
ENDMDL
MODEL 47
REMARK VINA RESULT:      -7.0      3.674      6.077
ROOT
ATOM      1  C1  SGN B   1      26.472  16.452  12.6960  0.00  0.00     0.000 C
ATOM      2  C2  SGN B   1      27.494  16.673  11.5690  0.00  0.00     0.000 C
ATOM      3  C3  SGN B   1      27.306  18.053  10.9280  0.00  0.00     0.000 C
ATOM      4  C4  SGN B   1      25.871  18.213  10.4360  0.00  0.00     0.000 C
ATOM      5  C5  SGN B   1      24.912  17.841  11.5640  0.00  0.00     0.000 C
ATOM      6  O5  SGN B   1      25.214  16.513  12.0350  0.00  0.00     0.000 O
ATOM      7   O  SGN B   1      28.224  18.236   9.8580  0.00  0.00     0.000 O
ATOM      9  HD  SGN B   1      27.770  17.552   9.5840  0.00  0.00     0.000 HD
ATOM      9   O  SGN B   1      25.658  19.554  10.0360  0.00  0.00     0.000 O
ATOM     11  HD  SGN B   1      25.203  18.870   9.7630  0.00  0.00     0.000 HD
ENDROOT
BRANCH 2 13
ATOM     11   N  SGN B   1      28.206  15.383  11.6440  0.00  0.00     0.000 N
ATOM     13  HD  SGN B   1      28.169  15.906  12.3330  0.00  0.00     0.000 HD
ATOM     13   S  SGN B   1      29.447  15.143  12.6400  0.00  0.00     0.000 S
ATOM     14   O  SGN B   1      29.678  16.299  13.4150  0.00  0.00     0.000 OA
ATOM     15   O  SGN B   1      29.266  13.888  13.2890  0.00  0.00     0.000 OA
ATOM     16   O  SGN B   1      30.561  14.949  11.5650  0.00  0.00     0.000 OA
ENDBRANCH 2 13
BRANCH 5 17
ATOM     17   C  SGN B   1      23.458  17.855  11.1630  0.00  0.00     0.000 C
ATOM     18   O  SGN B   1      22.908  19.184  11.2670  0.00  0.00     0.000 O
ATOM     19   S  SGN B   1      21.475  19.297  11.9680  0.00  0.00     0.000 S
ATOM     20   O  SGN B   1      21.052  20.662  11.7380  0.00  0.00     0.000 OA
ATOM     21   O  SGN B   1      20.667  18.317  11.2790  0.00  0.00     0.000 OA
ATOM     22   O  SGN B   1      21.711  18.990  13.3620  0.00  0.00     0.000 OA
ENDBRANCH 5 17
BRANCH 1 23
ATOM     23  O4  IDS B   2      26.324  16.645  14.0370  0.00  0.00     0.000 O
BRANCH 23 27
ATOM     24  C1  IDS B   2      25.496  18.274  17.7640  0.00  0.00     0.000 C
ATOM     25  C2  IDS B   2      25.028  19.110  16.5520  0.00  0.00     0.000 C
ATOM     26  C3  IDS B   2      25.110  18.295  15.2640  0.00  0.00     0.000 C
ATOM     27  C4  IDS B   2      26.488  17.700  15.0080  0.00  0.00     0.000 C
ATOM     28  C5  IDS B   2      27.122  17.249  16.3390  0.00  0.00     0.000 C
ATOM     29  O5  IDS B   2      26.130  17.062  17.3360  0.00  0.00     0.000 O
ATOM     30   O  IDS B   2      24.792  19.134  14.1590  0.00  0.00     0.000 O
ATOM     32  HD  IDS B   2      25.450  19.642  13.9150  0.00  0.00     0.000 HD
BRANCH 25 32
ATOM     32   O  IDS B   2      23.627  19.576  16.6990  0.00  0.00     0.000 O
ATOM     33   S  IDS B   2      23.235  21.179  16.6700  0.00  0.00     0.000 S
ATOM     34   O  IDS B   2      21.837  21.261  17.0640  0.00  0.00     0.000 OA
ATOM     35   O  IDS B   2      24.092  21.905  17.5960  0.00  0.00     0.000 OA
ATOM     36   O  IDS B   2      23.421  21.601  15.3010  0.00  0.00     0.000 OA
ENDBRANCH 25 32
BRANCH 28 37
ATOM     37   C  IDS B   2      28.031  16.003  16.3180  0.00  0.00     0.000 C
ATOM     38   O  IDS B   2      27.420  14.982  16.1090  0.00  0.00     0.000 OA
ATOM     39   O  IDS B   2      29.282  15.978  16.4290  0.00  0.00     0.000 OA
ENDBRANCH 28 37
BRANCH 24 40
ATOM     40  O4  SUS B   3      25.561  18.841  18.9870  0.00  0.00     0.000 O
BRANCH 40 44
ATOM     41  C1  SUS B   3      24.471  16.965  22.5700  0.00  0.00     0.000 C
ATOM     42  C2  SUS B   3      25.935  17.430  22.4350  0.00  0.00     0.000 C
ATOM     43  C3  SUS B   3      26.028  18.481  21.3300  0.00  0.00     0.000 C
ATOM     44  C4  SUS B   3      25.443  17.904  20.0510  0.00  0.00     0.000 C
ATOM     45  C5  SUS B   3      23.983  17.572  20.2870  0.00  0.00     0.000 C
ATOM     46  O5  SUS B   3      23.910  16.564  21.3150  0.00  0.00     0.000 O
BRANCH 42 49
ATOM     47   N  SUS B   3      27.339  17.356  22.8730  0.00  0.00     0.000 N
ATOM     49  HD  SUS B   3      27.875  16.889  22.3780  0.00  0.00     0.000 HD
ATOM     49   S  SUS B   3      27.488  16.848  24.3850  0.00  0.00     0.000 S
ATOM     50   O  SUS B   3      26.880  15.584  24.5280  0.00  0.00     0.000 OA
ATOM     51   O  SUS B   3      29.032  16.713  24.3780  0.00  0.00     0.000 OA
ATOM     52   O  SUS B   3      27.082  17.871  25.2640  0.00  0.00     0.000 OA
ENDBRANCH 42 49
BRANCH 43 53
ATOM     53   O  SUS B   3      27.454  18.803  21.1290  0.00  0.00     0.000 O
ATOM     54   S  SUS B   3      27.939  20.328  21.5040  0.00  0.00     0.000 S
ATOM     55   O  SUS B   3      27.908  20.451  22.9540  0.00  0.00     0.000 OA
ATOM     56   O  SUS B   3      29.272  20.423  20.9360  0.00  0.00     0.000 OA
ATOM     57   O  SUS B   3      26.977  21.236  20.8730  0.00  0.00     0.000 OA
ENDBRANCH 43 53
BRANCH 45 58
ATOM     58   C  SUS B   3      23.303  17.084  19.0270  0.00  0.00     0.000 C
ATOM     59   S  SUS B   3      22.972  14.995  17.5730  0.00  0.00     0.000 S
ATOM     60   O  SUS B   3      23.436  15.656  18.9360  0.00  0.00     0.000 O
ATOM     61   O  SUS B   3      24.052  15.254  16.6390  0.00  0.00     0.000 OA
ATOM     62   O  SUS B   3      22.892  13.612  17.9600  0.00  0.00     0.000 OA
ATOM     63   O  SUS B   3      21.733  15.611  17.2550  0.00  0.00     0.000 OA
ENDBRANCH 45 58
BRANCH 41 64
ATOM     64  O4  IDS B   4      23.680  17.827  23.2890  0.00  0.00     0.000 O
BRANCH 64 68
ATOM     65  C1  IDS B   4      21.161  18.886  25.7000  0.00  0.00     0.000 C
ATOM     66  C2  IDS B   4      22.218  17.846  26.0930  0.00  0.00     0.000 C
ATOM     67  C3  IDS B   4      22.424  16.742  25.0700  0.00  0.00     0.000 C
ATOM     68  C4  IDS B   4      22.403  17.250  23.6410  0.00  0.00     0.000 C
ATOM     69  C5  IDS B   4      21.231  18.230  23.5000  0.00  0.00     0.000 C
ATOM     70  O5  IDS B   4      21.432  19.335  24.3840  0.00  0.00     0.000 O
ATOM     71   O  IDS B   4      21.389  15.799  25.2570  0.00  0.00     0.000 O
ATOM     73  HD  IDS B   4      21.901  16.460  25.4800  0.00  0.00     0.000 HD
BRANCH 66 73
ATOM     73   O  IDS B   4      23.520  18.517  26.2120  0.00  0.00     0.000 O
ATOM     74   S  IDS B   4      24.165  18.665  27.6890  0.00  0.00     0.000 S
ATOM     75   O  IDS B   4      23.185  19.360  28.4960  0.00  0.00     0.000 OA
ATOM     76   O  IDS B   4      25.353  19.434  27.4170  0.00  0.00     0.000 OA
ATOM     77   O  IDS B   4      24.420  17.316  28.1350  0.00  0.00     0.000 OA
ENDBRANCH 66 73
BRANCH 69 78
ATOM     78   C  IDS B   4      20.940  18.661  22.0690  0.00  0.00     0.000 C
ATOM     79   O  IDS B   4      20.976  19.860  21.7940  0.00  0.00     0.000 OA
ATOM     80   O  IDS B   4      20.780  17.782  21.2030  0.00  0.00     0.000 OA
ENDBRANCH 69 78
BRANCH 65 81
ATOM     81  O4  SGN B   5      19.919  18.378  25.9320  0.00  0.00     0.000 O
BRANCH 81 85
ATOM     82  C1  SGN B   5      16.009  19.482  26.9950  0.00  0.00     0.000 C
ATOM     83  C2  SGN B   5      16.341  19.448  25.4960  0.00  0.00     0.000 C
ATOM     84  C3  SGN B   5      17.602  18.604  25.2690  0.00  0.00     0.000 C
ATOM     85  C4  SGN B   5      18.734  19.155  26.1180  0.00  0.00     0.000 C
ATOM     86  C5  SGN B   5      18.297  19.117  27.5810  0.00  0.00     0.000 C
ATOM     87  O5  SGN B   5      17.125  19.939  27.7350  0.00  0.00     0.000 O
ATOM     88   O  SGN B   5      17.946  18.615  23.9000  0.00  0.00     0.000 O
ATOM     90  HD  SGN B   5      17.545  17.967  24.3120  0.00  0.00     0.000 HD
BRANCH 83 92
ATOM     90   N  SGN B   5      14.884  19.687  25.4750  0.00  0.00     0.000 N
ATOM     92  HD  SGN B   5      14.641  20.177  26.1470  0.00  0.00     0.000 HD
ATOM     92   S  SGN B   5      14.205  20.066  24.0790  0.00  0.00     0.000 S
ATOM     93   O  SGN B   5      12.819  20.237  24.3950  0.00  0.00     0.000 OA
ATOM     94   O  SGN B   5      14.959  21.158  23.5670  0.00  0.00     0.000 OA
ATOM     95   O  SGN B   5      14.472  18.874  23.1860  0.00  0.00     0.000 OA
ENDBRANCH 83 92
BRANCH 86 96
ATOM     96   C  SGN B   5      19.339  19.630  28.5530  0.00  0.00     0.000 C
ATOM     97   O  SGN B   5      19.014  20.953  28.9860  0.00  0.00     0.000 O
ATOM     98   S  SGN B   5      19.013  21.198  30.5710  0.00  0.00     0.000 S
ATOM     99   O  SGN B   5      18.858  22.629  30.6720  0.00  0.00     0.000 OA
ATOM    100   O  SGN B   5      17.941  20.446  31.1180  0.00  0.00     0.000 OA
ATOM    101   O  SGN B   5      20.293  20.736  31.0010  0.00  0.00     0.000 OA
ENDBRANCH 86 96
BRANCH 82 102
ATOM    102  O4  IDS B   6      15.589  18.274  27.4670  0.00  0.00     0.000 O
BRANCH 102 106
ATOM    103  C1  IDS B   6      12.900  16.475  29.1380  0.00  0.00     0.000 C
ATOM    104  C2  IDS B   6      12.627  17.805  28.4170  0.00  0.00     0.000 C
ATOM    105  C3  IDS B   6      13.608  18.918  28.7280  0.00  0.00     0.000 C
ATOM    106  C4  IDS B   6      15.045  18.431  28.8020  0.00  0.00     0.000 C
ATOM    107  C5  IDS B   6      15.103  17.109  29.5730  0.00  0.00     0.000 C
ATOM    108  O5  IDS B   6      14.260  16.114  28.9900  0.00  0.00     0.000 O
ATOM    109   O  IDS B   6      13.217  19.521  29.9510  0.00  0.00     0.000 O
ATOM    111  HD  IDS B   6      12.752  18.908  30.3460  0.00  0.00     0.000 HD
BRANCH 104 111
ATOM    111   O  IDS B   6      12.729  17.592  26.9650  0.00  0.00     0.000 O
ATOM    112   S  IDS B   6      11.377  17.362  26.1400  0.00  0.00     0.000 S
ATOM    113   O  IDS B   6      10.769  16.191  26.7520  0.00  0.00     0.000 OA
ATOM    114   O  IDS B   6      10.570  18.585  26.2230  0.00  0.00     0.000 OA
ATOM    115   O  IDS B   6      11.940  17.115  24.8310  0.00  0.00     0.000 OA
ENDBRANCH 104 111
BRANCH 107 116
ATOM    116   C  IDS B   6      16.542  16.611  29.6110  0.00  0.00     0.000 C
ATOM    117   O  IDS B   6      17.333  17.283  30.2220  0.00  0.00     0.000 OA
ATOM    118   O  IDS B   6      16.874  15.584  29.0380  0.00  0.00     0.000 OA
ENDBRANCH 107 116
BRANCH 103 119
ATOM    119  O4  SGN B   7      12.346  16.656  30.3640  0.00  0.00     0.000 O
BRANCH 119 123
ATOM    120  C1  SGN B   7      10.760  14.205  33.3590  0.00  0.00     0.000 C
ATOM    121  C2  SGN B   7      12.240  14.005  32.9830  0.00  0.00     0.000 C
ATOM    122  C3  SGN B   7      12.762  15.211  32.1920  0.00  0.00     0.000 C
ATOM    123  C4  SGN B   7      11.855  15.476  31.0020  0.00  0.00     0.000 C
ATOM    124  C5  SGN B   7      10.405  15.654  31.4790  0.00  0.00     0.000 C
ATOM    125  O5  SGN B   7       9.955  14.496  32.2180  0.00  0.00     0.000 O
ATOM    126   O  SGN B   7      14.107  14.948  31.7750  0.00  0.00     0.000 O
ATOM    128  HD  SGN B   7      13.427  14.714  32.2590  0.00  0.00     0.000 HD
BRANCH 121 130
ATOM    128   N  SGN B   7      12.503  12.636  33.4340  0.00  0.00     0.000 N
ATOM    130  HD  SGN B   7      13.298  12.669  33.0930  0.00  0.00     0.000 HD
ATOM    130   S  SGN B   7      13.487  12.311  34.6660  0.00  0.00     0.000 S
ATOM    131   O  SGN B   7      13.050  13.155  35.7250  0.00  0.00     0.000 OA
ATOM    132   O  SGN B   7      13.532  10.904  34.8430  0.00  0.00     0.000 OA
ATOM    133   O  SGN B   7      14.869  12.673  34.0240  0.00  0.00     0.000 OA
ENDBRANCH 121 130
BRANCH 124 134
ATOM    134   C  SGN B   7       9.413  15.806  30.3640  0.00  0.00     0.000 C
ATOM    135   O  SGN B   7       8.553  16.919  30.6640  0.00  0.00     0.000 O
ATOM    136   S  SGN B   7       7.538  17.342  29.5430  0.00  0.00     0.000 S
ATOM    137   O  SGN B   7       6.726  18.394  30.1060  0.00  0.00     0.000 OA
ATOM    138   O  SGN B   7       6.784  16.145  29.2440  0.00  0.00     0.000 OA
ATOM    139   O  SGN B   7       8.419  17.782  28.4720  0.00  0.00     0.000 OA
ENDBRANCH 124 134
BRANCH 120 140
ATOM    140  O4  IDS B   8      10.240  15.095  34.2130  0.00  0.00     0.000 O
BRANCH 140 144
ATOM    141  C1  IDS B   8       9.729  18.253  35.8640  0.00  0.00     0.000 C
ATOM    142  C2  IDS B   8      11.152  17.798  35.4300  0.00  0.00     0.000 C
ATOM    143  C3  IDS B   8      11.482  16.357  35.8600  0.00  0.00     0.000 C
ATOM    144  C4  IDS B   8      10.316  15.403  35.6100  0.00  0.00     0.000 C
ATOM    145  C5  IDS B   8       9.000  16.040  36.0820  0.00  0.00     0.000 C
ATOM    146  O5  IDS B   8       8.764  17.294  35.4470  0.00  0.00     0.000 O
BRANCH 142 147
ATOM    147   O  IDS B   8      11.259  17.851  33.9480  0.00  0.00     0.000 O
ATOM    148   S  IDS B   8      11.972  19.104  33.2050  0.00  0.00     0.000 S
ATOM    149   O  IDS B   8      12.064  20.185  34.1600  0.00  0.00     0.000 OA
ATOM    150   O  IDS B   8      13.272  18.615  32.7840  0.00  0.00     0.000 OA
ATOM    151   O  IDS B   8      11.101  19.435  32.0940  0.00  0.00     0.000 OA
ENDBRANCH 142 147
BRANCH 145 152
ATOM    152   C  IDS B   8       7.791  15.181  35.7700  0.00  0.00     0.000 C
ATOM    153   O  IDS B   8       6.945  15.592  34.9830  0.00  0.00     0.000 OA
ATOM    154   O  IDS B   8       7.683  14.084  36.2870  0.00  0.00     0.000 OA
ENDBRANCH 145 152
ENDBRANCH 140 144
ENDBRANCH 120 140
ENDBRANCH 119 123
ENDBRANCH 103 119
ENDBRANCH 102 106
ENDBRANCH 82 102
ENDBRANCH 81 85
ENDBRANCH 65 81
ENDBRANCH 64 68
ENDBRANCH 41 64
ENDBRANCH 40 44
ENDBRANCH 24 40
ENDBRANCH 23 27
ENDBRANCH 1 23
TORSDOF 31
ENDMDL
MODEL 48
REMARK VINA RESULT:      -7.0      5.105      8.308
ROOT
ATOM      1  C1  SGN B   1      26.027  16.717  13.6820  0.00  0.00     0.000 C
ATOM      2  C2  SGN B   1      24.693  16.357  13.0070  0.00  0.00     0.000 C
ATOM      3  C3  SGN B   1      23.687  15.834  14.0390  0.00  0.00     0.000 C
ATOM      4  C4  SGN B   1      24.279  14.652  14.7990  0.00  0.00     0.000 C
ATOM      5  C5  SGN B   1      25.663  15.036  15.3200  0.00  0.00     0.000 C
ATOM      6  O5  SGN B   1      26.482  15.484  14.2230  0.00  0.00     0.000 O
ATOM      7   O  SGN B   1      22.470  15.460  13.4040  0.00  0.00     0.000 O
ATOM      9  HD  SGN B   1      23.037  14.927  13.0250  0.00  0.00     0.000 HD
ATOM      9   O  SGN B   1      23.428  14.314  15.8790  0.00  0.00     0.000 O
ATOM     11  HD  SGN B   1      23.995  13.780  15.4990  0.00  0.00     0.000 HD
ENDROOT
BRANCH 2 13
ATOM     11   N  SGN B   1      24.919  16.683  11.5860  0.00  0.00     0.000 N
ATOM     13  HD  SGN B   1      25.106  17.259  12.2050  0.00  0.00     0.000 HD
ATOM     13   S  SGN B   1      24.859  18.191  11.0300  0.00  0.00     0.000 S
ATOM     14   O  SGN B   1      24.621  19.091  12.0910  0.00  0.00     0.000 OA
ATOM     15   O  SGN B   1      25.977  18.400  10.1730  0.00  0.00     0.000 OA
ATOM     16   O  SGN B   1      23.602  18.043  10.1190  0.00  0.00     0.000 OA
ENDBRANCH 2 13
BRANCH 5 17
ATOM     17   C  SGN B   1      26.398  13.908  15.9990  0.00  0.00     0.000 C
ATOM     18   O  SGN B   1      27.806  14.200  16.1030  0.00  0.00     0.000 O
ATOM     19   S  SGN B   1      28.800  13.011  15.7080  0.00  0.00     0.000 S
ATOM     20   O  SGN B   1      30.112  13.467  16.1170  0.00  0.00     0.000 OA
ATOM     21   O  SGN B   1      28.318  11.881  16.4680  0.00  0.00     0.000 OA
ATOM     22   O  SGN B   1      28.659  12.860  14.2770  0.00  0.00     0.000 OA
ENDBRANCH 5 17
BRANCH 1 23
ATOM     23  O4  IDS B   2      26.655  17.770  14.2800  0.00  0.00     0.000 O
BRANCH 23 27
ATOM     24  C1  IDS B   2      25.693  19.016  18.1210  0.00  0.00     0.000 C
ATOM     25  C2  IDS B   2      24.638  19.325  17.0350  0.00  0.00     0.000 C
ATOM     26  C3  IDS B   2      24.948  18.573  15.7430  0.00  0.00     0.000 C
ATOM     27  C4  IDS B   2      26.353  18.826  15.2150  0.00  0.00     0.000 C
ATOM     28  C5  IDS B   2      27.345  18.939  16.3910  0.00  0.00     0.000 C
ATOM     29  O5  IDS B   2      26.819  18.329  17.5590  0.00  0.00     0.000 O
ATOM     30   O  IDS B   2      24.030  18.978  14.7340  0.00  0.00     0.000 O
ATOM     32  HD  IDS B   2      24.232  19.740  14.3750  0.00  0.00     0.000 HD
BRANCH 25 32
ATOM     32   O  IDS B   2      23.268  18.943  17.4590  0.00  0.00     0.000 O
ATOM     33   S  IDS B   2      22.096  20.070  17.7400  0.00  0.00     0.000 S
ATOM     34   O  IDS B   2      20.983  19.355  18.3440  0.00  0.00     0.000 OA
ATOM     35   O  IDS B   2      22.616  21.097  18.6310  0.00  0.00     0.000 OA
ATOM     36   O  IDS B   2      21.742  20.595  16.4420  0.00  0.00     0.000 OA
ENDBRANCH 25 32
BRANCH 28 37
ATOM     37   C  IDS B   2      28.781  18.417  16.1750  0.00  0.00     0.000 C
ATOM     38   O  IDS B   2      29.546  19.285  15.8240  0.00  0.00     0.000 OA
ATOM     39   O  IDS B   2      29.200  17.253  16.3850  0.00  0.00     0.000 OA
ENDBRANCH 28 37
BRANCH 24 40
ATOM     40  O4  SUS B   3      25.631  19.640  19.3160  0.00  0.00     0.000 O
BRANCH 40 44
ATOM     41  C1  SUS B   3      26.688  18.251  23.1230  0.00  0.00     0.000 C
ATOM     42  C2  SUS B   3      27.810  18.860  22.2580  0.00  0.00     0.000 C
ATOM     43  C3  SUS B   3      27.188  19.722  21.1620  0.00  0.00     0.000 C
ATOM     44  C4  SUS B   3      26.193  18.879  20.3790  0.00  0.00     0.000 C
ATOM     45  C5  SUS B   3      25.096  18.418  21.3180  0.00  0.00     0.000 C
ATOM     46  O5  SUS B   3      25.694  17.588  22.3350  0.00  0.00     0.000 O
BRANCH 42 49
ATOM     47   N  SUS B   3      28.746  19.526  23.1800  0.00  0.00     0.000 N
ATOM     49  HD  SUS B   3      28.887  20.370  23.0450  0.00  0.00     0.000 HD
ATOM     49   S  SUS B   3      30.167  18.790  23.2560  0.00  0.00     0.000 S
ATOM     50   O  SUS B   3      30.739  18.717  21.9700  0.00  0.00     0.000 OA
ATOM     51   O  SUS B   3      30.881  19.867  24.1120  0.00  0.00     0.000 OA
ATOM     52   O  SUS B   3      30.032  17.588  23.9790  0.00  0.00     0.000 OA
ENDBRANCH 42 49
BRANCH 43 53
ATOM     53   O  SUS B   3      28.272  20.175  20.2690  0.00  0.00     0.000 O
ATOM     54   S  SUS B   3      28.652  21.774  20.3040  0.00  0.00     0.000 S
ATOM     55   O  SUS B   3      29.313  22.038  21.5740  0.00  0.00     0.000 OA
ATOM     56   O  SUS B   3      29.512  21.956  19.1480  0.00  0.00     0.000 OA
ATOM     57   O  SUS B   3      27.385  22.504  20.2020  0.00  0.00     0.000 OA
ENDBRANCH 43 53
BRANCH 45 58
ATOM     58   C  SUS B   3      24.011  17.655  20.5900  0.00  0.00     0.000 C
ATOM     59   S  SUS B   3      23.509  15.395  19.4830  0.00  0.00     0.000 S
ATOM     60   O  SUS B   3      24.425  16.290  20.4150  0.00  0.00     0.000 O
ATOM     61   O  SUS B   3      23.857  15.778  18.1280  0.00  0.00     0.000 OA
ATOM     62   O  SUS B   3      23.979  14.080  19.8280  0.00  0.00     0.000 OA
ATOM     63   O  SUS B   3      22.174  15.684  19.8730  0.00  0.00     0.000 OA
ENDBRANCH 45 58
BRANCH 41 64
ATOM     64  O4  IDS B   4      26.179  19.117  24.0590  0.00  0.00     0.000 O
BRANCH 64 68
ATOM     65  C1  IDS B   4      25.386  19.367  27.6060  0.00  0.00     0.000 C
ATOM     66  C2  IDS B   4      26.220  18.191  27.0820  0.00  0.00     0.000 C
ATOM     67  C3  IDS B   4      25.660  17.532  25.8330  0.00  0.00     0.000 C
ATOM     68  C4  IDS B   4      25.109  18.533  24.8350  0.00  0.00     0.000 C
ATOM     69  C5  IDS B   4      24.278  19.567  25.6050  0.00  0.00     0.000 C
ATOM     70  O5  IDS B   4      25.122  20.253  26.5330  0.00  0.00     0.000 O
ATOM     71   O  IDS B   4      24.633  16.655  26.2460  0.00  0.00     0.000 O
ATOM     73  HD  IDS B   4      25.333  17.153  26.3530  0.00  0.00     0.000 HD
BRANCH 66 73
ATOM     73   O  IDS B   4      27.549  18.687  26.7010  0.00  0.00     0.000 O
ATOM     74   S  IDS B   4      28.820  18.201  27.5770  0.00  0.00     0.000 S
ATOM     75   O  IDS B   4      28.538  18.571  28.9480  0.00  0.00     0.000 OA
ATOM     76   O  IDS B   4      29.896  18.948  26.9770  0.00  0.00     0.000 OA
ATOM     77   O  IDS B   4      28.903  16.774  27.3760  0.00  0.00     0.000 OA
ENDBRANCH 66 73
BRANCH 69 78
ATOM     78   C  IDS B   4      23.476  20.514  24.7220  0.00  0.00     0.000 C
ATOM     79   O  IDS B   4      24.040  21.499  24.2480  0.00  0.00     0.000 OA
ATOM     80   O  IDS B   4      22.308  20.204  24.4230  0.00  0.00     0.000 OA
ENDBRANCH 69 78
BRANCH 65 81
ATOM     81  O4  SGN B   5      24.308  18.890  28.2880  0.00  0.00     0.000 O
BRANCH 81 85
ATOM     82  C1  SGN B   5      22.004  19.639  31.7180  0.00  0.00     0.000 C
ATOM     83  C2  SGN B   5      21.420  20.095  30.3730  0.00  0.00     0.000 C
ATOM     84  C3  SGN B   5      22.127  19.354  29.2290  0.00  0.00     0.000 C
ATOM     85  C4  SGN B   5      23.625  19.579  29.3370  0.00  0.00     0.000 C
ATOM     86  C5  SGN B   5      24.089  19.068  30.6990  0.00  0.00     0.000 C
ATOM     87  O5  SGN B   5      23.408  19.811  31.7280  0.00  0.00     0.000 O
ATOM     88   O  SGN B   5      21.636  19.810  27.9870  0.00  0.00     0.000 O
ATOM     90  HD  SGN B   5      21.412  19.068  28.3750  0.00  0.00     0.000 HD
BRANCH 83 92
ATOM     90   N  SGN B   5      20.071  19.974  30.9600  0.00  0.00     0.000 N
ATOM     92  HD  SGN B   5      20.112  19.673  31.7710  0.00  0.00     0.000 HD
ATOM     92   S  SGN B   5      19.043  21.176  30.7340  0.00  0.00     0.000 S
ATOM     93   O  SGN B   5      17.856  20.761  31.4190  0.00  0.00     0.000 OA
ATOM     94   O  SGN B   5      19.729  22.353  31.1450  0.00  0.00     0.000 OA
ATOM     95   O  SGN B   5      18.868  21.256  29.2330  0.00  0.00     0.000 OA
ENDBRANCH 83 92
BRANCH 86 96
ATOM     96   C  SGN B   5      25.577  19.218  30.9440  0.00  0.00     0.000 C
ATOM     97   O  SGN B   5      25.960  20.594  30.8780  0.00  0.00     0.000 O
ATOM     98   S  SGN B   5      26.821  21.147  32.1130  0.00  0.00     0.000 S
ATOM     99   O  SGN B   5      27.215  22.460  31.6630  0.00  0.00     0.000 OA
ATOM    100   O  SGN B   5      25.981  21.139  33.2560  0.00  0.00     0.000 OA
ATOM    101   O  SGN B   5      27.914  20.235  32.2200  0.00  0.00     0.000 OA
ENDBRANCH 86 96
BRANCH 82 102
ATOM    102  O4  IDS B   6      21.682  18.349  32.0190  0.00  0.00     0.000 O
BRANCH 102 106
ATOM    103  C1  IDS B   6      20.232  15.811  34.1910  0.00  0.00     0.000 C
ATOM    104  C2  IDS B   6      19.591  17.203  34.0720  0.00  0.00     0.000 C
ATOM    105  C3  IDS B   6      20.558  18.367  34.1800  0.00  0.00     0.000 C
ATOM    106  C4  IDS B   6      21.860  18.118  33.4400  0.00  0.00     0.000 C
ATOM    107  C5  IDS B   6      22.339  16.687  33.7030  0.00  0.00     0.000 C
ATOM    108  O5  IDS B   6      21.354  15.719  33.3350  0.00  0.00     0.000 O
ATOM    109   O  IDS B   6      20.799  18.614  35.5550  0.00  0.00     0.000 O
ATOM    111  HD  IDS B   6      20.612  17.861  35.9390  0.00  0.00     0.000 HD
BRANCH 104 111
ATOM    111   O  IDS B   6      18.972  17.334  32.7450  0.00  0.00     0.000 O
ATOM    112   S  IDS B   6      17.375  17.271  32.6490  0.00  0.00     0.000 S
ATOM    113   O  IDS B   6      17.026  15.977  33.2130  0.00  0.00     0.000 OA
ATOM    114   O  IDS B   6      16.821  18.423  33.3690  0.00  0.00     0.000 OA
ATOM    115   O  IDS B   6      17.224  17.346  31.2120  0.00  0.00     0.000 OA
ENDBRANCH 104 111
BRANCH 107 116
ATOM    116   C  IDS B   6      23.626  16.435  32.9280  0.00  0.00     0.000 C
ATOM    117   O  IDS B   6      24.642  16.868  33.4090  0.00  0.00     0.000 OA
ATOM    118   O  IDS B   6      23.621  15.833  31.8660  0.00  0.00     0.000 OA
ENDBRANCH 107 116
BRANCH 103 119
ATOM    119  O4  SGN B   7      20.349  15.625  35.5310  0.00  0.00     0.000 O
BRANCH 119 123
ATOM    120  C1  SGN B   7      20.885  12.375  38.1080  0.00  0.00     0.000 C
ATOM    121  C2  SGN B   7      22.116  12.881  37.3330  0.00  0.00     0.000 C
ATOM    122  C3  SGN B   7      21.856  14.284  36.7670  0.00  0.00     0.000 C
ATOM    123  C4  SGN B   7      20.574  14.279  35.9510  0.00  0.00     0.000 C
ATOM    124  C5  SGN B   7      19.411  13.753  36.8090  0.00  0.00     0.000 C
ATOM    125  O5  SGN B   7      19.698  12.431  37.3180  0.00  0.00     0.000 O
ATOM    126   O  SGN B   7      22.979  14.681  35.9720  0.00  0.00     0.000 O
ATOM    128  HD  SGN B   7      22.639  14.118  36.5360  0.00  0.00     0.000 HD
BRANCH 121 130
ATOM    128   N  SGN B   7      22.919  11.668  37.5010  0.00  0.00     0.000 N
ATOM    130  HD  SGN B   7      23.443  11.917  36.8580  0.00  0.00     0.000 HD
ATOM    130   S  SGN B   7      24.388  11.694  38.1610  0.00  0.00     0.000 S
ATOM    131   O  SGN B   7      24.237  12.417  39.3770  0.00  0.00     0.000 OA
ATOM    132   O  SGN B   7      24.896  10.370  38.1720  0.00  0.00     0.000 OA
ATOM    133   O  SGN B   7      25.192  12.417  37.0270  0.00  0.00     0.000 OA
ENDBRANCH 121 130
BRANCH 124 134
ATOM    134   C  SGN B   7      18.122  13.601  36.0560  0.00  0.00     0.000 C
ATOM    135   O  SGN B   7      18.191  12.402  35.2660  0.00  0.00     0.000 O
ATOM    136   S  SGN B   7      16.877  11.980  34.5170  0.00  0.00     0.000 S
ATOM    137   O  SGN B   7      17.216  10.825  33.7200  0.00  0.00     0.000 OA
ATOM    138   O  SGN B   7      16.510  13.128  33.7200  0.00  0.00     0.000 OA
ATOM    139   O  SGN B   7      15.968  11.695  35.6170  0.00  0.00     0.000 OA
ENDBRANCH 124 134
BRANCH 120 140
ATOM    140  O4  IDS B   8      20.391  12.838  39.2610  0.00  0.00     0.000 O
BRANCH 140 144
ATOM    141  C1  IDS B   8      19.513  15.321  41.7160  0.00  0.00     0.000 C
ATOM    142  C2  IDS B   8      20.807  15.461  40.8640  0.00  0.00     0.000 C
ATOM    143  C3  IDS B   8      21.652  14.174  40.8350  0.00  0.00     0.000 C
ATOM    144  C4  IDS B   8      20.791  12.928  40.6340  0.00  0.00     0.000 C
ATOM    145  C5  IDS B   8      19.552  12.988  41.5420  0.00  0.00     0.000 C
ATOM    146  O5  IDS B   8      18.786  14.168  41.3100  0.00  0.00     0.000 O
BRANCH 142 147
ATOM    147   O  IDS B   8      20.443  15.781  39.4590  0.00  0.00     0.000 O
ATOM    148   S  IDS B   8      20.526  17.301  38.9000  0.00  0.00     0.000 S
ATOM    149   O  IDS B   8      20.599  18.185  40.0410  0.00  0.00     0.000 OA
ATOM    150   O  IDS B   8      21.720  17.347  38.0770  0.00  0.00     0.000 OA
ATOM    151   O  IDS B   8      19.304  17.496  38.1420  0.00  0.00     0.000 OA
ENDBRANCH 142 147
BRANCH 145 152
ATOM    152   C  IDS B   8      18.607  11.826  41.3160  0.00  0.00     0.000 C
ATOM    153   O  IDS B   8      18.920  10.707  41.7090  0.00  0.00     0.000 OA
ATOM    154   O  IDS B   8      17.538  12.018  40.7660  0.00  0.00     0.000 OA
ENDBRANCH 145 152
ENDBRANCH 140 144
ENDBRANCH 120 140
ENDBRANCH 119 123
ENDBRANCH 103 119
ENDBRANCH 102 106
ENDBRANCH 82 102
ENDBRANCH 81 85
ENDBRANCH 65 81
ENDBRANCH 64 68
ENDBRANCH 41 64
ENDBRANCH 40 44
ENDBRANCH 24 40
ENDBRANCH 23 27
ENDBRANCH 1 23
TORSDOF 31
ENDMDL
MODEL 49
REMARK VINA RESULT:      -7.0      3.434      5.434
ROOT
ATOM      1  C1  SGN B   1      28.808  11.234  13.7820  0.00  0.00     0.000 C
ATOM      2  C2  SGN B   1      30.286  10.812  13.7960  0.00  0.00     0.000 C
ATOM      3  C3  SGN B   1      30.549   9.721  12.7520  0.00  0.00     0.000 C
ATOM      4  C4  SGN B   1      29.615   8.537  12.9820  0.00  0.00     0.000 C
ATOM      5  C5  SGN B   1      28.181   9.047  13.0990  0.00  0.00     0.000 C
ATOM      6  O5  SGN B   1      28.108  10.047  14.1330  0.00  0.00     0.000 O
ATOM      7   O  SGN B   1      31.907   9.302  12.7980  0.00  0.00     0.000 O
ATOM      9  HD  SGN B   1      31.634   9.100  13.5940  0.00  0.00     0.000 HD
ATOM      9   O  SGN B   1      29.725   7.633  11.8980  0.00  0.00     0.000 O
ATOM     11  HD  SGN B   1      29.452   7.432  12.6940  0.00  0.00     0.000 HD
ENDROOT
BRANCH 2 13
ATOM     11   N  SGN B   1      31.287  11.886  13.6530  0.00  0.00     0.000 N
ATOM     13  HD  SGN B   1      30.905  11.739  14.4160  0.00  0.00     0.000 HD
ATOM     13   S  SGN B   1      31.268  13.207  14.5720  0.00  0.00     0.000 S
ATOM     14   O  SGN B   1      30.220  13.128  15.5130  0.00  0.00     0.000 OA
ATOM     15   O  SGN B   1      32.595  13.462  15.0210  0.00  0.00     0.000 OA
ATOM     16   O  SGN B   1      30.952  14.250  13.4560  0.00  0.00     0.000 OA
ENDBRANCH 2 13
BRANCH 5 17
ATOM     17   C  SGN B   1      27.174   7.976  13.4370  0.00  0.00     0.000 C
ATOM     18   O  SGN B   1      26.210   7.822  12.3760  0.00  0.00     0.000 O
ATOM     19   S  SGN B   1      24.680   7.719  12.8280  0.00  0.00     0.000 S
ATOM     20   O  SGN B   1      23.960   7.338  11.6310  0.00  0.00     0.000 OA
ATOM     21   O  SGN B   1      24.682   6.698  13.8510  0.00  0.00     0.000 OA
ATOM     22   O  SGN B   1      24.340   9.038  13.3140  0.00  0.00     0.000 OA
ENDBRANCH 5 17
BRANCH 1 23
ATOM     23  O4  IDS B   2      27.973  12.128  13.1790  0.00  0.00     0.000 O
BRANCH 23 27
ATOM     24  C1  IDS B   2      25.223  14.550  15.1300  0.00  0.00     0.000 C
ATOM     25  C2  IDS B   2      24.942  13.033  15.1980  0.00  0.00     0.000 C
ATOM     26  C3  IDS B   2      26.149  12.232  14.7170  0.00  0.00     0.000 C
ATOM     27  C4  IDS B   2      26.628  12.629  13.3280  0.00  0.00     0.000 C
ATOM     28  C5  IDS B   2      26.491  14.153  13.1390  0.00  0.00     0.000 C
ATOM     29  O5  IDS B   2      26.424  14.816  14.3930  0.00  0.00     0.000 O
ATOM     30   O  IDS B   2      25.808  10.851  14.6760  0.00  0.00     0.000 O
ATOM     32  HD  IDS B   2      25.347  10.634  13.9750  0.00  0.00     0.000 HD
BRANCH 25 32
ATOM     32   O  IDS B   2      24.624  12.582  16.5750  0.00  0.00     0.000 O
ATOM     33   S  IDS B   2      23.301  11.651  16.9040  0.00  0.00     0.000 S
ATOM     34   O  IDS B   2      23.192  11.600  18.3530  0.00  0.00     0.000 OA
ATOM     35   O  IDS B   2      22.122  12.256  16.3020  0.00  0.00     0.000 OA
ATOM     36   O  IDS B   2      23.594  10.349  16.3520  0.00  0.00     0.000 OA
ENDBRANCH 25 32
BRANCH 28 37
ATOM     37   C  IDS B   2      27.543  14.869  12.2670  0.00  0.00     0.000 C
ATOM     38   O  IDS B   2      27.544  14.481  11.1230  0.00  0.00     0.000 OA
ATOM     39   O  IDS B   2      28.302  15.806  12.6170  0.00  0.00     0.000 OA
ENDBRANCH 28 37
BRANCH 24 40
ATOM     40  O4  SUS B   3      24.251  15.430  15.4500  0.00  0.00     0.000 O
BRANCH 40 44
ATOM     41  C1  SUS B   3      24.546  19.220  17.2090  0.00  0.00     0.000 C
ATOM     42  C2  SUS B   3      24.677  19.143  15.6740  0.00  0.00     0.000 C
ATOM     43  C3  SUS B   3      24.080  17.826  15.1840  0.00  0.00     0.000 C
ATOM     44  C4  SUS B   3      24.751  16.677  15.9210  0.00  0.00     0.000 C
ATOM     45  C5  SUS B   3      24.472  16.816  17.4030  0.00  0.00     0.000 C
ATOM     46  O5  SUS B   3      25.060  18.052  17.8580  0.00  0.00     0.000 O
BRANCH 42 49
ATOM     47   N  SUS B   3      24.097  20.390  15.1490  0.00  0.00     0.000 N
ATOM     49  HD  SUS B   3      23.436  20.307  14.5960  0.00  0.00     0.000 HD
ATOM     49   S  SUS B   3      25.192  21.345  14.4750  0.00  0.00     0.000 S
ATOM     50   O  SUS B   3      25.855  20.657  13.4380  0.00  0.00     0.000 OA
ATOM     51   O  SUS B   3      24.195  22.380  13.8940  0.00  0.00     0.000 OA
ATOM     52   O  SUS B   3      25.986  21.929  15.4820  0.00  0.00     0.000 OA
ENDBRANCH 42 49
BRANCH 43 53
ATOM     53   O  SUS B   3      24.345  17.717  13.7370  0.00  0.00     0.000 O
ATOM     54   S  SUS B   3      23.042  17.706  12.7340  0.00  0.00     0.000 S
ATOM     55   O  SUS B   3      22.480  19.049  12.7360  0.00  0.00     0.000 OA
ATOM     56   O  SUS B   3      23.589  17.301  11.4510  0.00  0.00     0.000 OA
ATOM     57   O  SUS B   3      22.097  16.734  13.2920  0.00  0.00     0.000 OA
ENDBRANCH 43 53
BRANCH 45 58
ATOM     58   C  SUS B   3      25.025  15.652  18.1960  0.00  0.00     0.000 C
ATOM     59   S  SUS B   3      24.792  14.425  20.4370  0.00  0.00     0.000 S
ATOM     60   O  SUS B   3      24.232  15.461  19.3790  0.00  0.00     0.000 O
ATOM     61   O  SUS B   3      25.846  15.131  21.1390  0.00  0.00     0.000 OA
ATOM     62   O  SUS B   3      23.624  14.217  21.2520  0.00  0.00     0.000 OA
ATOM     63   O  SUS B   3      25.213  13.299  19.6810  0.00  0.00     0.000 OA
ENDBRANCH 45 58
BRANCH 41 64
ATOM     64  O4  IDS B   4      23.297  19.598  17.6390  0.00  0.00     0.000 O
BRANCH 64 68
ATOM     65  C1  IDS B   4      21.378  21.568  20.0280  0.00  0.00     0.000 C
ATOM     66  C2  IDS B   4      22.865  21.867  19.7980  0.00  0.00     0.000 C
ATOM     67  C3  IDS B   4      23.759  20.639  19.7910  0.00  0.00     0.000 C
ATOM     68  C4  IDS B   4      23.135  19.460  19.0680  0.00  0.00     0.000 C
ATOM     69  C5  IDS B   4      21.669  19.350  19.5090  0.00  0.00     0.000 C
ATOM     70  O5  IDS B   4      20.976  20.544  19.1370  0.00  0.00     0.000 O
ATOM     71   O  IDS B   4      24.009  20.294  21.1380  0.00  0.00     0.000 O
ATOM     73  HD  IDS B   4      23.765  20.815  20.4910  0.00  0.00     0.000 HD
BRANCH 66 73
ATOM     73   O  IDS B   4      23.025  22.475  18.4700  0.00  0.00     0.000 O
ATOM     74   S  IDS B   4      23.871  23.850  18.3620  0.00  0.00     0.000 S
ATOM     75   O  IDS B   4      23.234  24.794  19.2550  0.00  0.00     0.000 OA
ATOM     76   O  IDS B   4      23.730  24.176  16.9650  0.00  0.00     0.000 OA
ATOM     77   O  IDS B   4      25.216  23.506  18.7580  0.00  0.00     0.000 OA
ENDBRANCH 66 73
BRANCH 69 78
ATOM     78   C  IDS B   4      20.964  18.085  19.0400  0.00  0.00     0.000 C
ATOM     79   O  IDS B   4      21.646  17.112  18.7210  0.00  0.00     0.000 OA
ATOM     80   O  IDS B   4      19.721  18.040  19.0960  0.00  0.00     0.000 OA
ENDBRANCH 69 78
BRANCH 65 81
ATOM     81  O4  SGN B   5      21.161  21.348  21.3540  0.00  0.00     0.000 O
BRANCH 81 85
ATOM     82  C1  SGN B   5      18.351  21.792  24.4440  0.00  0.00     0.000 C
ATOM     83  C2  SGN B   5      17.948  20.903  23.2570  0.00  0.00     0.000 C
ATOM     84  C3  SGN B   5      19.205  20.479  22.4850  0.00  0.00     0.000 C
ATOM     85  C4  SGN B   5      19.979  21.718  22.0680  0.00  0.00     0.000 C
ATOM     86  C5  SGN B   5      20.341  22.503  23.3260  0.00  0.00     0.000 C
ATOM     87  O5  SGN B   5      19.125  22.888  23.9960  0.00  0.00     0.000 O
ATOM     88   O  SGN B   5      18.839  19.710  21.3600  0.00  0.00     0.000 O
ATOM     90  HD  SGN B   5      19.149  19.395  22.1050  0.00  0.00     0.000 HD
BRANCH 83 92
ATOM     90   N  SGN B   5      17.018  20.226  24.1820  0.00  0.00     0.000 N
ATOM     92  HD  SGN B   5      17.053  20.580  24.9720  0.00  0.00     0.000 HD
ATOM     92   S  SGN B   5      15.547  19.890  23.6560  0.00  0.00     0.000 S
ATOM     93   O  SGN B   5      14.909  19.255  24.7690  0.00  0.00     0.000 OA
ATOM     94   O  SGN B   5      15.033  21.112  23.1400  0.00  0.00     0.000 OA
ATOM     95   O  SGN B   5      15.762  18.960  22.4820  0.00  0.00     0.000 OA
ENDBRANCH 83 92
BRANCH 86 96
ATOM     96   C  SGN B   5      21.131  23.768  23.0630  0.00  0.00     0.000 C
ATOM     97   O  SGN B   5      20.630  24.441  21.9050  0.00  0.00     0.000 O
ATOM     98   S  SGN B   5      20.301  26.000  22.0830  0.00  0.00     0.000 S
ATOM     99   O  SGN B   5      20.024  26.423  20.7310  0.00  0.00     0.000 OA
ATOM    100   O  SGN B   5      19.202  26.106  22.9730  0.00  0.00     0.000 OA
ATOM    101   O  SGN B   5      21.502  26.558  22.6140  0.00  0.00     0.000 OA
ENDBRANCH 86 96
BRANCH 82 102
ATOM    102  O4  IDS B   6      19.019  21.103  25.4120  0.00  0.00     0.000 O
BRANCH 102 106
ATOM    103  C1  IDS B   6      19.446  20.057  28.8740  0.00  0.00     0.000 C
ATOM    104  C2  IDS B   6      18.042  20.279  28.2870  0.00  0.00     0.000 C
ATOM    105  C3  IDS B   6      17.868  21.568  27.5080  0.00  0.00     0.000 C
ATOM    106  C4  IDS B   6      19.065  21.890  26.6300  0.00  0.00     0.000 C
ATOM    107  C5  IDS B   6      20.360  21.621  27.4030  0.00  0.00     0.000 C
ATOM    108  O5  IDS B   6      20.427  20.276  27.8780  0.00  0.00     0.000 O
ATOM    109   O  IDS B   6      17.627  22.614  28.4340  0.00  0.00     0.000 O
ATOM    111  HD  IDS B   6      17.964  22.319  29.1740  0.00  0.00     0.000 HD
BRANCH 104 111
ATOM    111   O  IDS B   6      17.749  19.203  27.3280  0.00  0.00     0.000 O
ATOM    112   S  IDS B   6      16.680  18.089  27.7510  0.00  0.00     0.000 S
ATOM    113   O  IDS B   6      17.220  17.507  28.9700  0.00  0.00     0.000 OA
ATOM    114   O  IDS B   6      15.372  18.736  27.9080  0.00  0.00     0.000 OA
ATOM    115   O  IDS B   6      16.774  17.223  26.5960  0.00  0.00     0.000 OA
ENDBRANCH 104 111
BRANCH 107 116
ATOM    116   C  IDS B   6      21.553  21.912  26.5020  0.00  0.00     0.000 C
ATOM    117   O  IDS B   6      21.875  23.067  26.3850  0.00  0.00     0.000 OA
ATOM    118   O  IDS B   6      22.146  21.015  25.9230  0.00  0.00     0.000 OA
ENDBRANCH 107 116
BRANCH 103 119
ATOM    119  O4  SGN B   7      19.431  20.781  30.0230  0.00  0.00     0.000 O
BRANCH 119 123
ATOM    120  C1  SGN B   7      21.008  20.392  33.8760  0.00  0.00     0.000 C
ATOM    121  C2  SGN B   7      21.975  20.797  32.7480  0.00  0.00     0.000 C
ATOM    122  C3  SGN B   7      21.194  21.282  31.5190  0.00  0.00     0.000 C
ATOM    123  C4  SGN B   7      20.176  20.231  31.1100  0.00  0.00     0.000 C
ATOM    124  C5  SGN B   7      19.267  19.891  32.3020  0.00  0.00     0.000 C
ATOM    125  O5  SGN B   7      20.043  19.438  33.4340  0.00  0.00     0.000 O
ATOM    126   O  SGN B   7      22.117  21.556  30.4590  0.00  0.00     0.000 O
ATOM    128  HD  SGN B   7      21.991  21.372  31.2960  0.00  0.00     0.000 HD
BRANCH 121 130
ATOM    128   N  SGN B   7      23.147  20.485  33.5690  0.00  0.00     0.000 N
ATOM    130  HD  SGN B   7      23.616  20.339  32.8570  0.00  0.00     0.000 HD
ATOM    130   S  SGN B   7      24.400  21.488  33.6960  0.00  0.00     0.000 S
ATOM    131   O  SGN B   7      23.833  22.752  34.0200  0.00  0.00     0.000 OA
ATOM    132   O  SGN B   7      25.363  20.893  34.5510  0.00  0.00     0.000 OA
ATOM    133   O  SGN B   7      25.011  21.356  32.2600  0.00  0.00     0.000 OA
ENDBRANCH 121 130
BRANCH 124 134
ATOM    134   C  SGN B   7      18.300  18.776  32.0310  0.00  0.00     0.000 C
ATOM    135   O  SGN B   7      17.942  18.166  33.2820  0.00  0.00     0.000 O
ATOM    136   S  SGN B   7      16.817  17.071  33.2300  0.00  0.00     0.000 S
ATOM    137   O  SGN B   7      16.707  16.537  34.5660  0.00  0.00     0.000 OA
ATOM    138   O  SGN B   7      17.281  16.096  32.2690  0.00  0.00     0.000 OA
ATOM    139   O  SGN B   7      15.656  17.835  32.8000  0.00  0.00     0.000 OA
ENDBRANCH 124 134
BRANCH 120 140
ATOM    140  O4  IDS B   8      20.205  21.183  34.5960  0.00  0.00     0.000 O
BRANCH 140 144
ATOM    141  C1  IDS B   8      17.536  23.162  35.9830  0.00  0.00     0.000 C
ATOM    142  C2  IDS B   8      18.043  23.406  34.5330  0.00  0.00     0.000 C
ATOM    143  C3  IDS B   8      19.577  23.513  34.4390  0.00  0.00     0.000 C
ATOM    144  C4  IDS B   8      20.277  22.443  35.2750  0.00  0.00     0.000 C
ATOM    145  C5  IDS B   8      19.619  22.336  36.6580  0.00  0.00     0.000 C
ATOM    146  O5  IDS B   8      18.224  22.058  36.5580  0.00  0.00     0.000 O
BRANCH 142 147
ATOM    147   O  IDS B   8      17.628  22.273  33.6650  0.00  0.00     0.000 O
ATOM    148   S  IDS B   8      16.400  22.430  32.6160  0.00  0.00     0.000 S
ATOM    149   O  IDS B   8      15.650  23.607  32.9930  0.00  0.00     0.000 OA
ATOM    150   O  IDS B   8      17.019  22.553  31.3100  0.00  0.00     0.000 OA
ATOM    151   O  IDS B   8      15.616  21.219  32.7630  0.00  0.00     0.000 OA
ENDBRANCH 142 147
BRANCH 145 152
ATOM    152   C  IDS B   8      20.207  21.221  37.5000  0.00  0.00     0.000 C
ATOM    153   O  IDS B   8      21.329  21.351  37.9760  0.00  0.00     0.000 OA
ATOM    154   O  IDS B   8      19.551  20.217  37.7120  0.00  0.00     0.000 OA
ENDBRANCH 145 152
ENDBRANCH 140 144
ENDBRANCH 120 140
ENDBRANCH 119 123
ENDBRANCH 103 119
ENDBRANCH 102 106
ENDBRANCH 82 102
ENDBRANCH 81 85
ENDBRANCH 65 81
ENDBRANCH 64 68
ENDBRANCH 41 64
ENDBRANCH 40 44
ENDBRANCH 24 40
ENDBRANCH 23 27
ENDBRANCH 1 23
TORSDOF 31
ENDMDL
MODEL 50
REMARK VINA RESULT:      -7.0      2.679      4.437
ROOT
ATOM      1  C1  SGN B   1      28.807  11.236  13.7690  0.00  0.00     0.000 C
ATOM      2  C2  SGN B   1      30.284  10.810  13.8070  0.00  0.00     0.000 C
ATOM      3  C3  SGN B   1      30.558   9.709  12.7770  0.00  0.00     0.000 C
ATOM      4  C4  SGN B   1      29.618   8.529  13.0050  0.00  0.00     0.000 C
ATOM      5  C5  SGN B   1      28.184   9.045  13.0970  0.00  0.00     0.000 C
ATOM      6  O5  SGN B   1      28.100  10.054  14.1210  0.00  0.00     0.000 O
ATOM      7   O  SGN B   1      31.915   9.286  12.8460  0.00  0.00     0.000 O
ATOM      9  HD  SGN B   1      31.630   9.093  13.6400  0.00  0.00     0.000 HD
ATOM      9   O  SGN B   1      29.741   7.616  11.9300  0.00  0.00     0.000 O
ATOM     11  HD  SGN B   1      29.456   7.422  12.7250  0.00  0.00     0.000 HD
ENDROOT
BRANCH 2 13
ATOM     11   N  SGN B   1      31.278  11.889  13.6550  0.00  0.00     0.000 N
ATOM     13  HD  SGN B   1      30.905  11.740  14.4220  0.00  0.00     0.000 HD
ATOM     13   S  SGN B   1      31.261  13.209  14.5750  0.00  0.00     0.000 S
ATOM     14   O  SGN B   1      30.224  13.124  15.5270  0.00  0.00     0.000 OA
ATOM     15   O  SGN B   1      32.592  13.471  15.0110  0.00  0.00     0.000 OA
ATOM     16   O  SGN B   1      30.928  14.252  13.4640  0.00  0.00     0.000 OA
ENDBRANCH 2 13
BRANCH 5 17
ATOM     17   C  SGN B   1      27.169   7.979  13.4310  0.00  0.00     0.000 C
ATOM     18   O  SGN B   1      26.199   7.842  12.3730  0.00  0.00     0.000 O
ATOM     19   S  SGN B   1      24.670   7.748  12.8310  0.00  0.00     0.000 S
ATOM     20   O  SGN B   1      23.942   7.384  11.6350  0.00  0.00     0.000 OA
ATOM     21   O  SGN B   1      24.668   6.719  13.8450  0.00  0.00     0.000 OA
ATOM     22   O  SGN B   1      24.344   9.066  13.3300  0.00  0.00     0.000 OA
ENDBRANCH 5 17
BRANCH 1 23
ATOM     23  O4  IDS B   2      27.983  12.126  13.1470  0.00  0.00     0.000 O
BRANCH 23 27
ATOM     24  C1  IDS B   2      25.314  14.633  15.1020  0.00  0.00     0.000 C
ATOM     25  C2  IDS B   2      24.989  13.125  15.1750  0.00  0.00     0.000 C
ATOM     26  C3  IDS B   2      26.170  12.287  14.6920  0.00  0.00     0.000 C
ATOM     27  C4  IDS B   2      26.654  12.667  13.2990  0.00  0.00     0.000 C
ATOM     28  C5  IDS B   2      26.560  14.194  13.1060  0.00  0.00     0.000 C
ATOM     29  O5  IDS B   2      26.518  14.862  14.3590  0.00  0.00     0.000 O
ATOM     30   O  IDS B   2      25.789  10.917  14.6560  0.00  0.00     0.000 O
ATOM     32  HD  IDS B   2      25.319  10.711  13.9590  0.00  0.00     0.000 HD
BRANCH 25 32
ATOM     32   O  IDS B   2      24.664  12.687  16.5550  0.00  0.00     0.000 O
ATOM     33   S  IDS B   2      23.332  11.772  16.8880  0.00  0.00     0.000 S
ATOM     34   O  IDS B   2      23.219  11.733  18.3380  0.00  0.00     0.000 OA
ATOM     35   O  IDS B   2      22.159  12.384  16.2800  0.00  0.00     0.000 OA
ATOM     36   O  IDS B   2      23.613  10.462  16.3470  0.00  0.00     0.000 OA
ENDBRANCH 25 32
BRANCH 28 37
ATOM     37   C  IDS B   2      27.629  14.876  12.2280  0.00  0.00     0.000 C
ATOM     38   O  IDS B   2      27.646  14.451  11.0970  0.00  0.00     0.000 OA
ATOM     39   O  IDS B   2      28.387  15.821  12.5580  0.00  0.00     0.000 OA
ENDBRANCH 28 37
BRANCH 24 40
ATOM     40  O4  SUS B   3      24.369  15.541  15.4230  0.00  0.00     0.000 O
BRANCH 40 44
ATOM     41  C1  SUS B   3      24.766  19.355  17.1100  0.00  0.00     0.000 C
ATOM     42  C2  SUS B   3      24.966  19.234  15.5860  0.00  0.00     0.000 C
ATOM     43  C3  SUS B   3      24.328  17.936  15.0970  0.00  0.00     0.000 C
ATOM     44  C4  SUS B   3      24.906  16.774  15.8900  0.00  0.00     0.000 C
ATOM     45  C5  SUS B   3      24.566  16.963  17.3540  0.00  0.00     0.000 C
ATOM     46  O5  SUS B   3      25.192  18.179  17.8090  0.00  0.00     0.000 O
BRANCH 42 49
ATOM     47   N  SUS B   3      24.487  20.530  15.0750  0.00  0.00     0.000 N
ATOM     49  HD  SUS B   3      23.805  20.507  14.5420  0.00  0.00     0.000 HD
ATOM     49   S  SUS B   3      25.645  21.379  14.3650  0.00  0.00     0.000 S
ATOM     50   O  SUS B   3      26.209  20.633  13.3100  0.00  0.00     0.000 OA
ATOM     51   O  SUS B   3      24.730  22.502  13.8110  0.00  0.00     0.000 OA
ATOM     52   O  SUS B   3      26.519  21.888  15.3450  0.00  0.00     0.000 OA
ENDBRANCH 42 49
BRANCH 43 53
ATOM     53   O  SUS B   3      24.656  17.779  13.6670  0.00  0.00     0.000 O
ATOM     54   S  SUS B   3      23.425  17.957  12.5920  0.00  0.00     0.000 S
ATOM     55   O  SUS B   3      23.070  19.369  12.5640  0.00  0.00     0.000 OA
ATOM     56   O  SUS B   3      23.976  17.466  11.3410  0.00  0.00     0.000 OA
ATOM     57   O  SUS B   3      22.315  17.141  13.0930  0.00  0.00     0.000 OA
ENDBRANCH 43 53
BRANCH 45 58
ATOM     58   C  SUS B   3      25.023  15.792  18.1970  0.00  0.00     0.000 C
ATOM     59   S  SUS B   3      24.716  14.704  20.5010  0.00  0.00     0.000 S
ATOM     60   O  SUS B   3      24.235  15.735  19.3990  0.00  0.00     0.000 O
ATOM     61   O  SUS B   3      25.842  15.344  21.1530  0.00  0.00     0.000 OA
ATOM     62   O  SUS B   3      23.548  14.645  21.3390  0.00  0.00     0.000 OA
ATOM     63   O  SUS B   3      25.020  13.509  19.7980  0.00  0.00     0.000 OA
ENDBRANCH 45 58
BRANCH 41 64
ATOM     64  O4  IDS B   4      23.519  19.802  17.4720  0.00  0.00     0.000 O
BRANCH 64 68
ATOM     65  C1  IDS B   4      21.839  22.125  19.7200  0.00  0.00     0.000 C
ATOM     66  C2  IDS B   4      23.359  22.199  19.5280  0.00  0.00     0.000 C
ATOM     67  C3  IDS B   4      24.066  20.856  19.5970  0.00  0.00     0.000 C
ATOM     68  C4  IDS B   4      23.300  19.749  18.8990  0.00  0.00     0.000 C
ATOM     69  C5  IDS B   4      21.822  19.868  19.2940  0.00  0.00     0.000 C
ATOM     70  O5  IDS B   4      21.318  21.132  18.8550  0.00  0.00     0.000 O
ATOM     71   O  IDS B   4      24.228  20.537  20.9640  0.00  0.00     0.000 O
ATOM     73  HD  IDS B   4      24.079  21.059  20.2900  0.00  0.00     0.000 HD
BRANCH 66 73
ATOM     73   O  IDS B   4      23.641  22.721  18.1840  0.00  0.00     0.000 O
ATOM     74   S  IDS B   4      24.612  24.009  18.0600  0.00  0.00     0.000 S
ATOM     75   O  IDS B   4      24.019  25.050  18.8710  0.00  0.00     0.000 OA
ATOM     76   O  IDS B   4      24.572  24.274  16.6440  0.00  0.00     0.000 OA
ATOM     77   O  IDS B   4      25.899  23.570  18.5460  0.00  0.00     0.000 OA
ENDBRANCH 66 73
BRANCH 69 78
ATOM     78   C  IDS B   4      20.955  18.698  18.8510  0.00  0.00     0.000 C
ATOM     79   O  IDS B   4      21.473  17.587  18.7410  0.00  0.00     0.000 OA
ATOM     80   O  IDS B   4      19.731  18.880  18.7170  0.00  0.00     0.000 OA
ENDBRANCH 69 78
BRANCH 65 81
ATOM     81  O4  SGN B   5      21.555  21.994  21.0460  0.00  0.00     0.000 O
BRANCH 81 85
ATOM     82  C1  SGN B   5      18.476  22.631  23.8300  0.00  0.00     0.000 C
ATOM     83  C2  SGN B   5      18.059  22.217  22.4110  0.00  0.00     0.000 C
ATOM     84  C3  SGN B   5      19.257  21.588  21.6860  0.00  0.00     0.000 C
ATOM     85  C4  SGN B   5      20.422  22.562  21.7070  0.00  0.00     0.000 C
ATOM     86  C5  SGN B   5      20.758  22.877  23.1620  0.00  0.00     0.000 C
ATOM     87  O5  SGN B   5      19.606  23.481  23.7810  0.00  0.00     0.000 O
ATOM     88   O  SGN B   5      18.898  21.257  20.3630  0.00  0.00     0.000 O
ATOM     90  HD  SGN B   5      18.958  20.698  21.0210  0.00  0.00     0.000 HD
BRANCH 83 92
ATOM     90   N  SGN B   5      16.813  21.730  23.0340  0.00  0.00     0.000 N
ATOM     92  HD  SGN B   5      16.799  21.909  23.8810  0.00  0.00     0.000 HD
ATOM     92   S  SGN B   5      15.437  21.991  22.2650  0.00  0.00     0.000 S
ATOM     93   O  SGN B   5      14.440  21.416  23.1170  0.00  0.00     0.000 OA
ATOM     94   O  SGN B   5      15.412  23.384  21.9780  0.00  0.00     0.000 OA
ATOM     95   O  SGN B   5      15.588  21.261  20.9480  0.00  0.00     0.000 OA
ENDBRANCH 83 92
BRANCH 86 96
ATOM     96   C  SGN B   5      21.918  23.835  23.3370  0.00  0.00     0.000 C
ATOM     97   O  SGN B   5      22.796  23.377  24.3680  0.00  0.00     0.000 O
ATOM     98   S  SGN B   5      24.352  23.301  23.9880  0.00  0.00     0.000 S
ATOM     99   O  SGN B   5      24.976  23.013  25.2580  0.00  0.00     0.000 OA
ATOM    100   O  SGN B   5      24.503  22.283  23.0110  0.00  0.00     0.000 OA
ATOM    101   O  SGN B   5      24.660  24.601  23.4890  0.00  0.00     0.000 OA
ENDBRANCH 86 96
BRANCH 82 102
ATOM    102  O4  IDS B   6      18.722  21.560  24.6370  0.00  0.00     0.000 O
BRANCH 102 106
ATOM    103  C1  IDS B   6      17.923  19.614  27.6090  0.00  0.00     0.000 C
ATOM    104  C2  IDS B   6      16.833  20.410  26.8750  0.00  0.00     0.000 C
ATOM    105  C3  IDS B   6      17.207  21.837  26.5230  0.00  0.00     0.000 C
ATOM    106  C4  IDS B   6      18.636  21.964  26.0270  0.00  0.00     0.000 C
ATOM    107  C5  IDS B   6      19.564  21.114  26.9000  0.00  0.00     0.000 C
ATOM    108  O5  IDS B   6      19.158  19.744  26.9310  0.00  0.00     0.000 O
ATOM    109   O  IDS B   6      16.998  22.644  27.6710  0.00  0.00     0.000 O
ATOM    111  HD  IDS B   6      17.038  22.083  28.3300  0.00  0.00     0.000 HD
BRANCH 104 111
ATOM    111   O  IDS B   6      16.545  19.756  25.5890  0.00  0.00     0.000 O
ATOM    112   S  IDS B   6      15.227  18.854  25.4810  0.00  0.00     0.000 S
ATOM    113   O  IDS B   6      15.395  17.837  26.5070  0.00  0.00     0.000 OA
ATOM    114   O  IDS B   6      14.056  19.720  25.6620  0.00  0.00     0.000 OA
ATOM    115   O  IDS B   6      15.392  18.360  24.1310  0.00  0.00     0.000 OA
ENDBRANCH 104 111
BRANCH 107 116
ATOM    116   C  IDS B   6      20.989  21.219  26.3730  0.00  0.00     0.000 C
ATOM    117   O  IDS B   6      21.640  22.158  26.7550  0.00  0.00     0.000 OA
ATOM    118   O  IDS B   6      21.441  20.395  25.5930  0.00  0.00     0.000 OA
ENDBRANCH 107 116
BRANCH 103 119
ATOM    119  O4  SGN B   7      17.783  19.997  28.9040  0.00  0.00     0.000 O
BRANCH 119 123
ATOM    120  C1  SGN B   7      18.359  18.214  32.6430  0.00  0.00     0.000 C
ATOM    121  C2  SGN B   7      19.563  18.927  32.0000  0.00  0.00     0.000 C
ATOM    122  C3  SGN B   7      19.099  19.850  30.8660  0.00  0.00     0.000 C
ATOM    123  C4  SGN B   7      18.250  19.064  29.8790  0.00  0.00     0.000 C
ATOM    124  C5  SGN B   7      17.084  18.387  30.6170  0.00  0.00     0.000 C
ATOM    125  O5  SGN B   7      17.567  17.528  31.6740  0.00  0.00     0.000 O
ATOM    126   O  SGN B   7      20.248  20.418  30.2280  0.00  0.00     0.000 O
ATOM    128  HD  SGN B   7      19.924  19.964  30.8900  0.00  0.00     0.000 HD
BRANCH 121 130
ATOM    128   N  SGN B   7      20.920  18.527  32.3810  0.00  0.00     0.000 N
ATOM    130  HD  SGN B   7      21.224  19.301  32.1380  0.00  0.00     0.000 HD
ATOM    130   S  SGN B   7      21.651  19.107  33.6930  0.00  0.00     0.000 S
ATOM    131   O  SGN B   7      20.715  18.926  34.7500  0.00  0.00     0.000 OA
ATOM    132   O  SGN B   7      22.945  18.533  33.7740  0.00  0.00     0.000 OA
ATOM    133   O  SGN B   7      21.902  20.587  33.2440  0.00  0.00     0.000 OA
ENDBRANCH 121 130
BRANCH 124 134
ATOM    134   C  SGN B   7      16.252  17.492  29.7460  0.00  0.00     0.000 C
ATOM    135   O  SGN B   7      15.735  16.420  30.5530  0.00  0.00     0.000 O
ATOM    136   S  SGN B   7      14.710  15.453  29.8580  0.00  0.00     0.000 S
ATOM    137   O  SGN B   7      14.419  14.414  30.8170  0.00  0.00     0.000 OA
ATOM    138   O  SGN B   7      15.391  14.961  28.6820  0.00  0.00     0.000 OA
ATOM    139   O  SGN B   7      13.587  16.335  29.5800  0.00  0.00     0.000 OA
ENDBRANCH 124 134
BRANCH 120 140
ATOM    140  O4  IDS B   8      17.376  18.753  33.3730  0.00  0.00     0.000 O
BRANCH 140 144
ATOM    141  C1  IDS B   8      14.415  20.397  34.5940  0.00  0.00     0.000 C
ATOM    142  C2  IDS B   8      15.346  21.091  33.5580  0.00  0.00     0.000 C
ATOM    143  C3  IDS B   8      16.833  21.038  33.9520  0.00  0.00     0.000 C
ATOM    144  C4  IDS B   8      17.239  19.660  34.4740  0.00  0.00     0.000 C
ATOM    145  C5  IDS B   8      16.185  19.136  35.4610  0.00  0.00     0.000 C
ATOM    146  O5  IDS B   8      14.889  19.085  34.8700  0.00  0.00     0.000 O
BRANCH 142 147
ATOM    147   O  IDS B   8      15.215  20.412  32.2420  0.00  0.00     0.000 O
ATOM    148   S  IDS B   8      14.378  21.092  31.0300  0.00  0.00     0.000 S
ATOM    149   O  IDS B   8      13.555  22.136  31.5980  0.00  0.00     0.000 OA
ATOM    150   O  IDS B   8      15.376  21.601  30.1080  0.00  0.00     0.000 OA
ATOM    151   O  IDS B   8      13.579  20.019  30.4690  0.00  0.00     0.000 OA
ENDBRANCH 142 147
BRANCH 145 152
ATOM    152   C  IDS B   8      16.482  17.729  35.9380  0.00  0.00     0.000 C
ATOM    153   O  IDS B   8      17.422  17.535  36.6990  0.00  0.00     0.000 OA
ATOM    154   O  IDS B   8      15.770  16.808  35.5770  0.00  0.00     0.000 OA
ENDBRANCH 145 152
ENDBRANCH 140 144
ENDBRANCH 120 140
ENDBRANCH 119 123
ENDBRANCH 103 119
ENDBRANCH 102 106
ENDBRANCH 82 102
ENDBRANCH 81 85
ENDBRANCH 65 81
ENDBRANCH 64 68
ENDBRANCH 41 64
ENDBRANCH 40 44
ENDBRANCH 24 40
ENDBRANCH 23 27
ENDBRANCH 1 23
TORSDOF 31
ENDMDL
MODEL 51
REMARK VINA RESULT:      -7.0      4.844      8.361
ROOT
ATOM      1  C1  SGN B   1      25.945  16.822  14.3290  0.00  0.00     0.000 C
ATOM      2  C2  SGN B   1      25.098  17.253  13.1200  0.00  0.00     0.000 C
ATOM      3  C3  SGN B   1      23.782  16.469  13.0730  0.00  0.00     0.000 C
ATOM      4  C4  SGN B   1      24.061  14.970  13.0690  0.00  0.00     0.000 C
ATOM      5  C5  SGN B   1      25.020  14.638  14.2110  0.00  0.00     0.000 C
ATOM      6  O5  SGN B   1      26.207  15.446  14.0930  0.00  0.00     0.000 O
ATOM      7   O  SGN B   1      23.021  16.838  11.9280  0.00  0.00     0.000 O
ATOM      9  HD  SGN B   1      23.742  16.521  11.5660  0.00  0.00     0.000 HD
ATOM      9   O  SGN B   1      22.845  14.264  13.2320  0.00  0.00     0.000 O
ATOM     11  HD  SGN B   1      23.565  13.947  12.8700  0.00  0.00     0.000 HD
ENDROOT
BRANCH 2 13
ATOM     11   N  SGN B   1      26.045  18.254  12.5930  0.00  0.00     0.000 N
ATOM     13  HD  SGN B   1      25.690  18.353  13.3770  0.00  0.00     0.000 HD
ATOM     13   S  SGN B   1      25.988  19.802  13.0300  0.00  0.00     0.000 S
ATOM     14   O  SGN B   1      24.970  20.000  13.9860  0.00  0.00     0.000 OA
ATOM     15   O  SGN B   1      27.314  20.237  13.3180  0.00  0.00     0.000 OA
ATOM     16   O  SGN B   1      25.595  20.409  11.6480  0.00  0.00     0.000 OA
ENDBRANCH 2 13
BRANCH 5 17
ATOM     17   C  SGN B   1      25.459  13.195  14.2440  0.00  0.00     0.000 C
ATOM     18   O  SGN B   1      26.273  12.932  15.4040  0.00  0.00     0.000 O
ATOM     19   S  SGN B   1      27.602  12.079  15.1500  0.00  0.00     0.000 S
ATOM     20   O  SGN B   1      28.099  11.757  16.4710  0.00  0.00     0.000 OA
ATOM     21   O  SGN B   1      27.146  10.928  14.4070  0.00  0.00     0.000 OA
ATOM     22   O  SGN B   1      28.474  12.956  14.4000  0.00  0.00     0.000 OA
ENDBRANCH 5 17
BRANCH 1 23
ATOM     23  O4  IDS B   2      26.142  17.135  15.6420  0.00  0.00     0.000 O
BRANCH 23 27
ATOM     24  C1  IDS B   2      25.606  18.717  19.4420  0.00  0.00     0.000 C
ATOM     25  C2  IDS B   2      24.504  19.060  18.4150  0.00  0.00     0.000 C
ATOM     26  C3  IDS B   2      24.639  18.199  17.1620  0.00  0.00     0.000 C
ATOM     27  C4  IDS B   2      26.017  18.274  16.5180  0.00  0.00     0.000 C
ATOM     28  C5  IDS B   2      27.104  18.362  17.6080  0.00  0.00     0.000 C
ATOM     29  O5  IDS B   2      26.614  17.885  18.8530  0.00  0.00     0.000 O
ATOM     30   O  IDS B   2      23.688  18.629  16.1940  0.00  0.00     0.000 O
ATOM     32  HD  IDS B   2      23.934  19.341  15.7680  0.00  0.00     0.000 HD
BRANCH 25 32
ATOM     32   O  IDS B   2      23.142  18.846  18.9620  0.00  0.00     0.000 O
ATOM     33   S  IDS B   2      22.007  20.044  18.9660  0.00  0.00     0.000 S
ATOM     34   O  IDS B   2      20.899  19.549  19.7680  0.00  0.00     0.000 OA
ATOM     35   O  IDS B   2      22.580  21.253  19.5400  0.00  0.00     0.000 OA
ATOM     36   O  IDS B   2      21.620  20.219  17.5850  0.00  0.00     0.000 OA
ENDBRANCH 25 32
BRANCH 28 37
ATOM     37   C  IDS B   2      28.461  17.685  17.3290  0.00  0.00     0.000 C
ATOM     38   O  IDS B   2      28.743  16.846  18.1510  0.00  0.00     0.000 OA
ATOM     39   O  IDS B   2      29.213  17.880  16.3430  0.00  0.00     0.000 OA
ENDBRANCH 28 37
BRANCH 24 40
ATOM     40  O4  SUS B   3      25.698  19.420  20.5900  0.00  0.00     0.000 O
BRANCH 40 44
ATOM     41  C1  SUS B   3      26.766  18.059  24.4050  0.00  0.00     0.000 C
ATOM     42  C2  SUS B   3      27.866  18.739  23.5660  0.00  0.00     0.000 C
ATOM     43  C3  SUS B   3      27.215  19.574  22.4650  0.00  0.00     0.000 C
ATOM     44  C4  SUS B   3      26.284  18.683  21.6580  0.00  0.00     0.000 C
ATOM     45  C5  SUS B   3      25.199  18.152  22.5730  0.00  0.00     0.000 C
ATOM     46  O5  SUS B   3      25.825  17.348  23.5930  0.00  0.00     0.000 O
BRANCH 42 49
ATOM     47   N  SUS B   3      29.305  18.575  23.2980  0.00  0.00     0.000 N
ATOM     49  HD  SUS B   3      29.548  17.831  22.9270  0.00  0.00     0.000 HD
ATOM     49   S  SUS B   3      30.205  18.795  24.6050  0.00  0.00     0.000 S
ATOM     50   O  SUS B   3      29.807  17.900  25.6190  0.00  0.00     0.000 OA
ATOM     51   O  SUS B   3      31.549  18.345  23.9760  0.00  0.00     0.000 OA
ATOM     52   O  SUS B   3      30.240  20.167  24.9230  0.00  0.00     0.000 OA
ENDBRANCH 42 49
BRANCH 43 53
ATOM     53   O  SUS B   3      28.287  20.096  21.5960  0.00  0.00     0.000 O
ATOM     54   S  SUS B   3      28.438  21.730  21.4900  0.00  0.00     0.000 S
ATOM     55   O  SUS B   3      28.962  22.203  22.7640  0.00  0.00     0.000 OA
ATOM     56   O  SUS B   3      29.344  21.928  20.3740  0.00  0.00     0.000 OA
ATOM     57   O  SUS B   3      27.092  22.255  21.2420  0.00  0.00     0.000 OA
ENDBRANCH 43 53
BRANCH 45 58
ATOM     58   C  SUS B   3      24.173  17.334  21.8200  0.00  0.00     0.000 C
ATOM     59   S  SUS B   3      23.115  14.999  21.7120  0.00  0.00     0.000 S
ATOM     60   O  SUS B   3      23.992  16.071  22.4800  0.00  0.00     0.000 O
ATOM     61   O  SUS B   3      23.990  14.452  20.6930  0.00  0.00     0.000 OA
ATOM     62   O  SUS B   3      22.845  14.065  22.7720  0.00  0.00     0.000 OA
ATOM     63   O  SUS B   3      21.986  15.710  21.2260  0.00  0.00     0.000 OA
ENDBRANCH 45 58
BRANCH 41 64
ATOM     64  O4  IDS B   4      26.191  18.886  25.3380  0.00  0.00     0.000 O
BRANCH 64 68
ATOM     65  C1  IDS B   4      25.082  19.701  28.7120  0.00  0.00     0.000 C
ATOM     66  C2  IDS B   4      26.295  18.788  28.4970  0.00  0.00     0.000 C
ATOM     67  C3  IDS B   4      26.084  17.697  27.4610  0.00  0.00     0.000 C
ATOM     68  C4  IDS B   4      25.316  18.180  26.2450  0.00  0.00     0.000 C
ATOM     69  C5  IDS B   4      24.132  19.025  26.7340  0.00  0.00     0.000 C
ATOM     70  O5  IDS B   4      24.627  20.158  27.4510  0.00  0.00     0.000 O
ATOM     71   O  IDS B   4      25.374  16.651  28.0900  0.00  0.00     0.000 O
ATOM     73  HD  IDS B   4      25.861  17.367  28.0620  0.00  0.00     0.000 HD
BRANCH 66 73
ATOM     73   O  IDS B   4      27.413  19.597  27.9930  0.00  0.00     0.000 O
ATOM     74   S  IDS B   4      28.765  19.659  28.8800  0.00  0.00     0.000 S
ATOM     75   O  IDS B   4      28.373  20.134  30.1900  0.00  0.00     0.000 OA
ATOM     76   O  IDS B   4      29.567  20.594  28.1320  0.00  0.00     0.000 OA
ATOM     77   O  IDS B   4      29.281  18.311  28.8920  0.00  0.00     0.000 OA
ENDBRANCH 66 73
BRANCH 69 78
ATOM     78   C  IDS B   4      23.136  19.402  25.6450  0.00  0.00     0.000 C
ATOM     79   O  IDS B   4      22.771  18.535  24.8520  0.00  0.00     0.000 OA
ATOM     80   O  IDS B   4      22.643  20.545  25.6580  0.00  0.00     0.000 OA
ENDBRANCH 69 78
BRANCH 65 81
ATOM     81  O4  SGN B   5      24.170  19.066  29.5000  0.00  0.00     0.000 O
BRANCH 81 85
ATOM     82  C1  SGN B   5      21.217  19.673  32.4240  0.00  0.00     0.000 C
ATOM     83  C2  SGN B   5      20.990  20.332  31.0550  0.00  0.00     0.000 C
ATOM     84  C3  SGN B   5      21.877  19.651  30.0040  0.00  0.00     0.000 C
ATOM     85  C4  SGN B   5      23.324  19.705  30.4590  0.00  0.00     0.000 C
ATOM     86  C5  SGN B   5      23.428  19.002  31.8100  0.00  0.00     0.000 C
ATOM     87  O5  SGN B   5      22.592  19.695  32.7570  0.00  0.00     0.000 O
ATOM     88   O  SGN B   5      21.715  20.288  28.7550  0.00  0.00     0.000 O
ATOM     90  HD  SGN B   5      21.352  19.536  28.9860  0.00  0.00     0.000 HD
BRANCH 83 92
ATOM     90   N  SGN B   5      19.895  20.941  31.8360  0.00  0.00     0.000 N
ATOM     92  HD  SGN B   5      20.207  21.414  32.4910  0.00  0.00     0.000 HD
ATOM     92   S  SGN B   5      18.684  21.609  31.0360  0.00  0.00     0.000 S
ATOM     93   O  SGN B   5      17.813  22.104  32.0590  0.00  0.00     0.000 OA
ATOM     94   O  SGN B   5      19.282  22.511  30.1120  0.00  0.00     0.000 OA
ATOM     95   O  SGN B   5      18.080  20.476  30.2350  0.00  0.00     0.000 OA
ENDBRANCH 83 92
BRANCH 86 96
ATOM     96   C  SGN B   5      24.829  18.968  32.3860  0.00  0.00     0.000 C
ATOM     97   O  SGN B   5      25.154  17.651  32.8380  0.00  0.00     0.000 O
ATOM     98   S  SGN B   5      26.544  17.047  32.3130  0.00  0.00     0.000 S
ATOM     99   O  SGN B   5      26.676  15.835  33.0860  0.00  0.00     0.000 OA
ATOM    100   O  SGN B   5      26.421  16.847  30.9140  0.00  0.00     0.000 OA
ATOM    101   O  SGN B   5      27.511  18.041  32.6500  0.00  0.00     0.000 OA
ENDBRANCH 86 96
BRANCH 82 102
ATOM    102  O4  IDS B   6      20.736  18.398  32.4790  0.00  0.00     0.000 O
BRANCH 102 106
ATOM    103  C1  IDS B   6      18.602  15.711  33.6950  0.00  0.00     0.000 C
ATOM    104  C2  IDS B   6      18.010  17.081  33.3320  0.00  0.00     0.000 C
ATOM    105  C3  IDS B   6      18.758  18.275  33.8940  0.00  0.00     0.000 C
ATOM    106  C4  IDS B   6      20.266  18.109  33.8200  0.00  0.00     0.000 C
ATOM    107  C5  IDS B   6      20.651  16.687  34.2370  0.00  0.00     0.000 C
ATOM    108  O5  IDS B   6      19.994  15.701  33.4400  0.00  0.00     0.000 O
ATOM    109   O  IDS B   6      18.338  18.468  35.2350  0.00  0.00     0.000 O
ATOM    111  HD  IDS B   6      18.038  17.691  35.4730  0.00  0.00     0.000 HD
BRANCH 104 111
ATOM    111   O  IDS B   6      18.051  17.250  31.8710  0.00  0.00     0.000 O
ATOM    112   S  IDS B   6      16.666  17.218  31.0700  0.00  0.00     0.000 S
ATOM    113   O  IDS B   6      16.091  15.919  31.3840  0.00  0.00     0.000 OA
ATOM    114   O  IDS B   6      15.857  18.366  31.4950  0.00  0.00     0.000 OA
ATOM    115   O  IDS B   6      17.175  17.323  29.7190  0.00  0.00     0.000 OA
ENDBRANCH 104 111
BRANCH 107 116
ATOM    116   C  IDS B   6      22.161  16.520  34.1250  0.00  0.00     0.000 C
ATOM    117   O  IDS B   6      22.825  16.969  35.0250  0.00  0.00     0.000 OA
ATOM    118   O  IDS B   6      22.669  15.966  33.1630  0.00  0.00     0.000 OA
ENDBRANCH 107 116
BRANCH 103 119
ATOM    119  O4  SGN B   7      18.110  15.467  34.9370  0.00  0.00     0.000 O
BRANCH 119 123
ATOM    120  C1  SGN B   7      17.225  12.088  37.2370  0.00  0.00     0.000 C
ATOM    121  C2  SGN B   7      18.695  12.543  37.1740  0.00  0.00     0.000 C
ATOM    122  C3  SGN B   7      18.791  13.981  36.6480  0.00  0.00     0.000 C
ATOM    123  C4  SGN B   7      18.055  14.094  35.3240  0.00  0.00     0.000 C
ATOM    124  C5  SGN B   7      16.605  13.611  35.4890  0.00  0.00     0.000 C
ATOM    125  O5  SGN B   7      16.562  12.254  35.9840  0.00  0.00     0.000 O
ATOM    126   O  SGN B   7      20.172  14.335  36.5100  0.00  0.00     0.000 O
ATOM    128  HD  SGN B   7      19.583  13.774  36.8060  0.00  0.00     0.000 HD
BRANCH 121 130
ATOM    128   N  SGN B   7      19.318  11.284  37.5890  0.00  0.00     0.000 N
ATOM    130  HD  SGN B   7      20.093  11.574  37.3330  0.00  0.00     0.000 HD
ATOM    130   S  SGN B   7      20.248  11.176  38.9000  0.00  0.00     0.000 S
ATOM    131   O  SGN B   7      19.490  11.776  39.9440  0.00  0.00     0.000 OA
ATOM    132   O  SGN B   7      20.698   9.836  39.0190  0.00  0.00     0.000 OA
ATOM    133   O  SGN B   7      21.506  11.975  38.4180  0.00  0.00     0.000 OA
ENDBRANCH 121 130
BRANCH 124 134
ATOM    134   C  SGN B   7      15.827  13.575  34.2060  0.00  0.00     0.000 C
ATOM    135   O  SGN B   7      14.555  12.954  34.4590  0.00  0.00     0.000 O
ATOM    136   S  SGN B   7      13.527  12.958  33.2720  0.00  0.00     0.000 S
ATOM    137   O  SGN B   7      12.384  12.198  33.7230  0.00  0.00     0.000 OA
ATOM    138   O  SGN B   7      14.220  12.333  32.1690  0.00  0.00     0.000 OA
ATOM    139   O  SGN B   7      13.261  14.376  33.0920  0.00  0.00     0.000 OA
ENDBRANCH 124 134
BRANCH 120 140
ATOM    140  O4  IDS B   8      16.258  12.536  38.0450  0.00  0.00     0.000 O
BRANCH 140 144
ATOM    141  C1  IDS B   8      14.357  11.818  41.0170  0.00  0.00     0.000 C
ATOM    142  C2  IDS B   8      14.822  10.675  40.0700  0.00  0.00     0.000 C
ATOM    143  C3  IDS B   8      14.510  10.955  38.5880  0.00  0.00     0.000 C
ATOM    144  C4  IDS B   8      14.840  12.394  38.1940  0.00  0.00     0.000 C
ATOM    145  C5  IDS B   8      14.322  13.367  39.2640  0.00  0.00     0.000 C
ATOM    146  O5  IDS B   8      14.853  13.067  40.5520  0.00  0.00     0.000 O
BRANCH 142 147
ATOM    147   O  IDS B   8      16.294  10.505  40.1850  0.00  0.00     0.000 O
ATOM    148   S  IDS B   8      16.976   9.036  40.0910  0.00  0.00     0.000 S
ATOM    149   O  IDS B   8      15.932   8.056  40.2830  0.00  0.00     0.000 OA
ATOM    150   O  IDS B   8      17.572   8.970  38.7700  0.00  0.00     0.000 OA
ATOM    151   O  IDS B   8      17.956   9.001  41.1600  0.00  0.00     0.000 OA
ENDBRANCH 142 147
BRANCH 145 152
ATOM    152   C  IDS B   8      14.706  14.805  38.9790  0.00  0.00     0.000 C
ATOM    153   O  IDS B   8      15.247  15.471  39.8550  0.00  0.00     0.000 OA
ATOM    154   O  IDS B   8      14.492  15.278  37.8770  0.00  0.00     0.000 OA
ENDBRANCH 145 152
ENDBRANCH 140 144
ENDBRANCH 120 140
ENDBRANCH 119 123
ENDBRANCH 103 119
ENDBRANCH 102 106
ENDBRANCH 82 102
ENDBRANCH 81 85
ENDBRANCH 65 81
ENDBRANCH 64 68
ENDBRANCH 41 64
ENDBRANCH 40 44
ENDBRANCH 24 40
ENDBRANCH 23 27
ENDBRANCH 1 23
TORSDOF 31
ENDMDL
MODEL 52
REMARK VINA RESULT:      -6.9      7.440     20.260
ROOT
ATOM      1  C1  SGN B   1      26.612  17.388  31.2490  0.00  0.00     0.000 C
ATOM      2  C2  SGN B   1      26.674  16.396  32.4220  0.00  0.00     0.000 C
ATOM      3  C3  SGN B   1      28.044  16.449  33.1060  0.00  0.00     0.000 C
ATOM      4  C4  SGN B   1      29.151  16.197  32.0870  0.00  0.00     0.000 C
ATOM      5  C5  SGN B   1      28.944  17.118  30.8870  0.00  0.00     0.000 C
ATOM      6  O5  SGN B   1      27.618  16.927  30.3560  0.00  0.00     0.000 O
ATOM      7   O  SGN B   1      28.113  15.499  34.1620  0.00  0.00     0.000 O
ATOM      9  HD  SGN B   1      27.977  14.989  33.4760  0.00  0.00     0.000 HD
ATOM      9   O  SGN B   1      30.409  16.450  32.6850  0.00  0.00     0.000 O
ATOM     11  HD  SGN B   1      30.272  15.940  31.9990  0.00  0.00     0.000 HD
ENDROOT
BRANCH 2 13
ATOM     11   N  SGN B   1      25.373  15.723  32.5980  0.00  0.00     0.000 N
ATOM     13  HD  SGN B   1      25.409  16.559  32.3740  0.00  0.00     0.000 HD
ATOM     13   S  SGN B   1      24.048  16.517  33.0480  0.00  0.00     0.000 S
ATOM     14   O  SGN B   1      24.329  17.893  33.1820  0.00  0.00     0.000 OA
ATOM     15   O  SGN B   1      22.969  16.100  32.2180  0.00  0.00     0.000 OA
ATOM     16   O  SGN B   1      23.845  15.842  34.4400  0.00  0.00     0.000 OA
ENDBRANCH 2 13
BRANCH 5 17
ATOM     17   C  SGN B   1      29.917  16.884  29.7580  0.00  0.00     0.000 C
ATOM     18   O  SGN B   1      29.296  17.139  28.4820  0.00  0.00     0.000 O
ATOM     19   S  SGN B   1      29.567  16.052  27.3410  0.00  0.00     0.000 S
ATOM     20   O  SGN B   1      29.048  16.645  26.1270  0.00  0.00     0.000 OA
ATOM     21   O  SGN B   1      31.002  15.892  27.3390  0.00  0.00     0.000 OA
ATOM     22   O  SGN B   1      28.844  14.872  27.7650  0.00  0.00     0.000 OA
ENDBRANCH 5 17
BRANCH 1 23
ATOM     23  O4  IDS B   2      26.283  18.684  30.9810  0.00  0.00     0.000 O
BRANCH 23 27
ATOM     24  C1  IDS B   2      26.702  19.562  26.9460  0.00  0.00     0.000 C
ATOM     25  C2  IDS B   2      27.217  20.643  27.9210  0.00  0.00     0.000 C
ATOM     26  C3  IDS B   2      27.291  20.103  29.3460  0.00  0.00     0.000 C
ATOM     27  C4  IDS B   2      25.977  19.514  29.8410  0.00  0.00     0.000 C
ATOM     28  C5  IDS B   2      25.263  18.777  28.6900  0.00  0.00     0.000 C
ATOM     29  O5  IDS B   2      26.180  18.435  27.6610  0.00  0.00     0.000 O
ATOM     30   O  IDS B   2      27.648  21.159  30.2300  0.00  0.00     0.000 O
ATOM     32  HD  IDS B   2      26.983  21.678  30.4290  0.00  0.00     0.000 HD
BRANCH 25 32
ATOM     32   O  IDS B   2      28.571  21.130  27.5560  0.00  0.00     0.000 O
ATOM     33   S  IDS B   2      28.872  22.725  27.2570  0.00  0.00     0.000 S
ATOM     34   O  IDS B   2      30.222  22.788  26.7200  0.00  0.00     0.000 OA
ATOM     35   O  IDS B   2      27.896  23.232  26.3040  0.00  0.00     0.000 OA
ATOM     36   O  IDS B   2      28.785  23.385  28.5390  0.00  0.00     0.000 OA
ENDBRANCH 25 32
BRANCH 28 37
ATOM     37   C  IDS B   2      24.435  17.524  29.0400  0.00  0.00     0.000 C
ATOM     38   O  IDS B   2      23.388  17.791  29.5800  0.00  0.00     0.000 OA
ATOM     39   O  IDS B   2      24.717  16.332  28.7650  0.00  0.00     0.000 OA
ENDBRANCH 28 37
BRANCH 24 40
ATOM     40  O4  SUS B   3      26.503  19.867  25.6470  0.00  0.00     0.000 O
BRANCH 40 44
ATOM     41  C1  SUS B   3      26.666  17.445  22.2330  0.00  0.00     0.000 C
ATOM     42  C2  SUS B   3      25.495  17.211  23.2090  0.00  0.00     0.000 C
ATOM     43  C3  SUS B   3      25.321  18.445  24.0910  0.00  0.00     0.000 C
ATOM     44  C4  SUS B   3      26.644  18.751  24.7760  0.00  0.00     0.000 C
ATOM     45  C5  SUS B   3      27.685  19.052  23.7170  0.00  0.00     0.000 C
ATOM     46  O5  SUS B   3      27.856  17.872  22.9050  0.00  0.00     0.000 O
BRANCH 42 49
ATOM     47   N  SUS B   3      24.219  16.847  22.5680  0.00  0.00     0.000 N
ATOM     49  HD  SUS B   3      23.514  17.267  22.8450  0.00  0.00     0.000 HD
ATOM     49   S  SUS B   3      23.920  15.275  22.6360  0.00  0.00     0.000 S
ATOM     50   O  SUS B   3      23.916  14.844  23.9780  0.00  0.00     0.000 OA
ATOM     51   O  SUS B   3      22.475  15.343  22.0790  0.00  0.00     0.000 OA
ATOM     52   O  SUS B   3      24.769  14.599  21.7360  0.00  0.00     0.000 OA
ENDBRANCH 42 49
BRANCH 43 53
ATOM     53   O  SUS B   3      24.292  18.138  25.1040  0.00  0.00     0.000 O
ATOM     54   S  SUS B   3      22.915  19.036  25.0680  0.00  0.00     0.000 S
ATOM     55   O  SUS B   3      22.163  18.634  23.8880  0.00  0.00     0.000 OA
ATOM     56   O  SUS B   3      22.254  18.715  26.3210  0.00  0.00     0.000 OA
ATOM     57   O  SUS B   3      23.336  20.437  24.9790  0.00  0.00     0.000 OA
ENDBRANCH 43 53
BRANCH 45 58
ATOM     58   C  SUS B   3      29.008  19.464  24.3240  0.00  0.00     0.000 C
ATOM     59   S  SUS B   3      31.514  19.650  23.8040  0.00  0.00     0.000 S
ATOM     60   O  SUS B   3      30.023  19.454  23.3070  0.00  0.00     0.000 O
ATOM     61   O  SUS B   3      31.906  18.363  24.3460  0.00  0.00     0.000 OA
ATOM     62   O  SUS B   3      32.172  19.954  22.5620  0.00  0.00     0.000 OA
ATOM     63   O  SUS B   3      31.465  20.715  24.7420  0.00  0.00     0.000 OA
ENDBRANCH 45 58
BRANCH 41 64
ATOM     64  O4  IDS B   4      26.332  18.209  21.1420  0.00  0.00     0.000 O
BRANCH 64 68
ATOM     65  C1  IDS B   4      25.952  18.979  17.6010  0.00  0.00     0.000 C
ATOM     66  C2  IDS B   4      25.613  17.579  18.1270  0.00  0.00     0.000 C
ATOM     67  C3  IDS B   4      26.658  16.989  19.0600  0.00  0.00     0.000 C
ATOM     68  C4  IDS B   4      27.228  18.010  20.0270  0.00  0.00     0.000 C
ATOM     69  C5  IDS B   4      27.525  19.296  19.2430  0.00  0.00     0.000 C
ATOM     70  O5  IDS B   4      26.306  19.805  18.6960  0.00  0.00     0.000 O
ATOM     71   O  IDS B   4      27.692  16.465  18.2530  0.00  0.00     0.000 O
ATOM     73  HD  IDS B   4      26.895  16.761  18.4180  0.00  0.00     0.000 HD
BRANCH 66 73
ATOM     73   O  IDS B   4      24.379  17.657  18.9220  0.00  0.00     0.000 O
ATOM     74   S  IDS B   4      23.156  16.678  18.5210  0.00  0.00     0.000 S
ATOM     75   O  IDS B   4      22.856  16.945  17.1300  0.00  0.00     0.000 OA
ATOM     76   O  IDS B   4      22.125  17.102  19.4350  0.00  0.00     0.000 OA
ATOM     77   O  IDS B   4      23.642  15.339  18.7530  0.00  0.00     0.000 OA
ENDBRANCH 66 73
BRANCH 69 78
ATOM     78   C  IDS B   4      28.306  20.343  20.0250  0.00  0.00     0.000 C
ATOM     79   O  IDS B   4      29.521  20.425  19.8530  0.00  0.00     0.000 OA
ATOM     80   O  IDS B   4      27.676  21.151  20.7320  0.00  0.00     0.000 OA
ENDBRANCH 69 78
BRANCH 65 81
ATOM     81  O4  SGN B   5      26.860  18.876  16.5910  0.00  0.00     0.000 O
BRANCH 81 85
ATOM     82  C1  SGN B   5      28.978  21.206  13.8120  0.00  0.00     0.000 C
ATOM     83  C2  SGN B   5      29.724  20.794  15.0900  0.00  0.00     0.000 C
ATOM     84  C3  SGN B   5      29.006  19.605  15.7430  0.00  0.00     0.000 C
ATOM     85  C4  SGN B   5      27.554  19.973  15.9920  0.00  0.00     0.000 C
ATOM     86  C5  SGN B   5      26.916  20.339  14.6540  0.00  0.00     0.000 C
ATOM     87  O5  SGN B   5      27.618  21.469  14.1010  0.00  0.00     0.000 O
ATOM     88   O  SGN B   5      29.653  19.256  16.9470  0.00  0.00     0.000 O
ATOM     90  HD  SGN B   5      29.735  18.837  16.1940  0.00  0.00     0.000 HD
BRANCH 83 92
ATOM     90   N  SGN B   5      30.703  21.707  14.4680  0.00  0.00     0.000 N
ATOM     92  HD  SGN B   5      30.361  22.494  14.3490  0.00  0.00     0.000 HD
ATOM     92   S  SGN B   5      32.200  21.697  15.0270  0.00  0.00     0.000 S
ATOM     93   O  SGN B   5      32.880  22.678  14.2340  0.00  0.00     0.000 OA
ATOM     94   O  SGN B   5      32.088  21.871  16.4340  0.00  0.00     0.000 OA
ATOM     95   O  SGN B   5      32.692  20.287  14.7830  0.00  0.00     0.000 OA
ENDBRANCH 83 92
BRANCH 86 96
ATOM     96   C  SGN B   5      25.452  20.719  14.7480  0.00  0.00     0.000 C
ATOM     97   O  SGN B   5      25.275  21.815  15.6490  0.00  0.00     0.000 O
ATOM     98   S  SGN B   5      24.423  23.055  15.0940  0.00  0.00     0.000 S
ATOM     99   O  SGN B   5      24.252  23.875  16.2690  0.00  0.00     0.000 OA
ATOM    100   O  SGN B   5      25.177  23.659  14.0550  0.00  0.00     0.000 OA
ATOM    101   O  SGN B   5      23.207  22.471  14.6310  0.00  0.00     0.000 OA
ENDBRANCH 86 96
BRANCH 82 102
ATOM    102  O4  IDS B   6      29.082  20.277  12.8210  0.00  0.00     0.000 O
BRANCH 102 106
ATOM    103  C1  IDS B   6      29.793  19.858   9.2740  0.00  0.00     0.000 C
ATOM    104  C2  IDS B   6      30.207  21.140  10.0130  0.00  0.00     0.000 C
ATOM    105  C3  IDS B   6      29.130  21.755  10.8860  0.00  0.00     0.000 C
ATOM    106  C4  IDS B   6      28.336  20.716  11.6570  0.00  0.00     0.000 C
ATOM    107  C5  IDS B   6      28.008  19.532  10.7420  0.00  0.00     0.000 C
ATOM    108  O5  IDS B   6      29.186  18.953  10.1770  0.00  0.00     0.000 O
ATOM    109   O  IDS B   6      28.278  22.528  10.0580  0.00  0.00     0.000 O
ATOM    111  HD  IDS B   6      28.388  22.187   9.2690  0.00  0.00     0.000 HD
BRANCH 104 111
ATOM    111   O  IDS B   6      31.318  20.831  10.9260  0.00  0.00     0.000 O
ATOM    112   S  IDS B   6      32.758  21.445  10.5940  0.00  0.00     0.000 S
ATOM    113   O  IDS B   6      33.076  20.940   9.2680  0.00  0.00     0.000 OA
ATOM    114   O  IDS B   6      32.672  22.907  10.6890  0.00  0.00     0.000 OA
ATOM    115   O  IDS B   6      33.525  20.830  11.6560  0.00  0.00     0.000 OA
ENDBRANCH 104 111
BRANCH 107 116
ATOM    116   C  IDS B   6      27.243  18.480  11.5340  0.00  0.00     0.000 C
ATOM    117   O  IDS B   6      27.880  17.545  11.9490  0.00  0.00     0.000 OA
ATOM    118   O  IDS B   6      26.042  18.579  11.7270  0.00  0.00     0.000 OA
ENDBRANCH 107 116
BRANCH 103 119
ATOM    119  O4  SGN B   7      29.131  20.316   8.1810  0.00  0.00     0.000 O
BRANCH 119 123
ATOM    120  C1  SGN B   7      27.690  18.633   4.6340  0.00  0.00     0.000 C
ATOM    121  C2  SGN B   7      26.732  18.687   5.8390  0.00  0.00     0.000 C
ATOM    122  C3  SGN B   7      27.252  19.669   6.8960  0.00  0.00     0.000 C
ATOM    123  C4  SGN B   7      28.684  19.317   7.2640  0.00  0.00     0.000 C
ATOM    124  C5  SGN B   7      29.555  19.282   5.9980  0.00  0.00     0.000 C
ATOM    125  O5  SGN B   7      29.030  18.345   5.0310  0.00  0.00     0.000 O
ATOM    126   O  SGN B   7      26.392  19.620   8.0400  0.00  0.00     0.000 O
ATOM    128  HD  SGN B   7      26.533  19.394   7.2160  0.00  0.00     0.000 HD
BRANCH 121 130
ATOM    128   N  SGN B   7      25.485  17.992   6.1680  0.00  0.00     0.000 N
ATOM    130  HD  SGN B   7      25.087  18.751   6.2960  0.00  0.00     0.000 HD
ATOM    130   S  SGN B   7      24.225  17.965   5.1660  0.00  0.00     0.000 S
ATOM    131   O  SGN B   7      24.757  17.556   3.9110  0.00  0.00     0.000 OA
ATOM    132   O  SGN B   7      23.183  17.224   5.7780  0.00  0.00     0.000 OA
ATOM    133   O  SGN B   7      23.758  19.457   5.2610  0.00  0.00     0.000 OA
ENDBRANCH 121 130
BRANCH 124 134
ATOM    134   C  SGN B   7      30.965  18.830   6.2430  0.00  0.00     0.000 C
ATOM    135   O  SGN B   7      31.693  18.912   5.0060  0.00  0.00     0.000 O
ATOM    136   S  SGN B   7      33.236  18.626   5.0830  0.00  0.00     0.000 S
ATOM    137   O  SGN B   7      33.724  18.663   3.7250  0.00  0.00     0.000 OA
ATOM    138   O  SGN B   7      33.349  17.319   5.6880  0.00  0.00     0.000 OA
ATOM    139   O  SGN B   7      33.716  19.719   5.9150  0.00  0.00     0.000 OA
ENDBRANCH 124 134
BRANCH 120 140
ATOM    140  O4  IDS B   8      27.941  19.594   3.7380  0.00  0.00     0.000 O
BRANCH 140 144
ATOM    141  C1  IDS B   8      29.539  21.458   1.1050  0.00  0.00     0.000 C
ATOM    142  C2  IDS B   8      28.791  22.185   2.2590  0.00  0.00     0.000 C
ATOM    143  C3  IDS B   8      27.387  21.611   2.5230  0.00  0.00     0.000 C
ATOM    144  C4  IDS B   8      27.381  20.083   2.5130  0.00  0.00     0.000 C
ATOM    145  C5  IDS B   8      28.190  19.559   1.3160  0.00  0.00     0.000 C
ATOM    146  O5  IDS B   8      29.527  20.053   1.3270  0.00  0.00     0.000 O
BRANCH 142 147
ATOM    147   O  IDS B   8      29.567  22.045   3.5190  0.00  0.00     0.000 O
ATOM    148   S  IDS B   8      29.513  23.191   4.6660  0.00  0.00     0.000 S
ATOM    149   O  IDS B   8      28.966  24.387   4.0650  0.00  0.00     0.000 OA
ATOM    150   O  IDS B   8      28.666  22.651   5.7130  0.00  0.00     0.000 OA
ATOM    151   O  IDS B   8      30.889  23.377   5.0850  0.00  0.00     0.000 OA
ENDBRANCH 142 147
BRANCH 145 152
ATOM    152   C  IDS B   8      28.304  18.048   1.3070  0.00  0.00     0.000 C
ATOM    153   O  IDS B   8      27.297  17.366   1.1500  0.00  0.00     0.000 OA
ATOM    154   O  IDS B   8      29.397  17.526   1.4360  0.00  0.00     0.000 OA
ENDBRANCH 145 152
ENDBRANCH 140 144
ENDBRANCH 120 140
ENDBRANCH 119 123
ENDBRANCH 103 119
ENDBRANCH 102 106
ENDBRANCH 82 102
ENDBRANCH 81 85
ENDBRANCH 65 81
ENDBRANCH 64 68
ENDBRANCH 41 64
ENDBRANCH 40 44
ENDBRANCH 24 40
ENDBRANCH 23 27
ENDBRANCH 1 23
TORSDOF 31
ENDMDL
MODEL 53
REMARK VINA RESULT:      -6.9      5.439      8.920
ROOT
ATOM      1  C1  SGN B   1      25.404  17.040  13.9610  0.00  0.00     0.000 C
ATOM      2  C2  SGN B   1      24.203  16.401  13.2450  0.00  0.00     0.000 C
ATOM      3  C3  SGN B   1      23.930  14.995  13.7900  0.00  0.00     0.000 C
ATOM      4  C4  SGN B   1      25.184  14.135  13.6780  0.00  0.00     0.000 C
ATOM      5  C5  SGN B   1      26.364  14.891  14.2840  0.00  0.00     0.000 C
ATOM      6  O5  SGN B   1      26.489  16.177  13.6470  0.00  0.00     0.000 O
ATOM      7   O  SGN B   1      22.846  14.391  13.0950  0.00  0.00     0.000 O
ATOM      9  HD  SGN B   1      23.416  14.518  12.4560  0.00  0.00     0.000 HD
ATOM      9   O  SGN B   1      24.981  12.915  14.3680  0.00  0.00     0.000 O
ATOM     11  HD  SGN B   1      25.551  13.042  13.7280  0.00  0.00     0.000 HD
ENDROOT
BRANCH 2 13
ATOM     11   N  SGN B   1      23.852  17.493  12.3170  0.00  0.00     0.000 N
ATOM     13  HD  SGN B   1      23.876  17.633  13.1710  0.00  0.00     0.000 HD
ATOM     13   S  SGN B   1      22.895  18.713  12.7470  0.00  0.00     0.000 S
ATOM     14   O  SGN B   1      22.522  18.583  14.1010  0.00  0.00     0.000 OA
ATOM     15   O  SGN B   1      23.485  19.929  12.2970  0.00  0.00     0.000 OA
ATOM     16   O  SGN B   1      21.698  18.403  11.7960  0.00  0.00     0.000 OA
ENDBRANCH 2 13
BRANCH 5 17
ATOM     17   C  SGN B   1      27.689  14.185  14.1330  0.00  0.00     0.000 C
ATOM     18   O  SGN B   1      28.589  14.949  13.3070  0.00  0.00     0.000 O
ATOM     19   S  SGN B   1      29.387  14.127  12.1920  0.00  0.00     0.000 S
ATOM     20   O  SGN B   1      30.372  15.053  11.6750  0.00  0.00     0.000 OA
ATOM     21   O  SGN B   1      29.961  13.016  12.9160  0.00  0.00     0.000 OA
ATOM     22   O  SGN B   1      28.387  13.741  11.2200  0.00  0.00     0.000 OA
ENDBRANCH 5 17
BRANCH 1 23
ATOM     23  O4  IDS B   2      25.695  17.808  15.0490  0.00  0.00     0.000 O
BRANCH 23 27
ATOM     24  C1  IDS B   2      25.420  18.359  19.1540  0.00  0.00     0.000 C
ATOM     25  C2  IDS B   2      24.237  17.610  18.5010  0.00  0.00     0.000 C
ATOM     26  C3  IDS B   2      24.573  17.203  17.0690  0.00  0.00     0.000 C
ATOM     27  C4  IDS B   2      25.021  18.368  16.1960  0.00  0.00     0.000 C
ATOM     28  C5  IDS B   2      25.878  19.347  17.0230  0.00  0.00     0.000 C
ATOM     29  O5  IDS B   2      26.408  18.710  18.1760  0.00  0.00     0.000 O
ATOM     30   O  IDS B   2      23.421  16.631  16.4620  0.00  0.00     0.000 O
ATOM     32  HD  IDS B   2      22.848  17.221  16.1920  0.00  0.00     0.000 HD
BRANCH 25 32
ATOM     32   O  IDS B   2      23.874  16.378  19.2430  0.00  0.00     0.000 O
ATOM     33   S  IDS B   2      24.743  14.983  19.0960  0.00  0.00     0.000 S
ATOM     34   O  IDS B   2      23.975  13.953  19.7760  0.00  0.00     0.000 OA
ATOM     35   O  IDS B   2      24.921  14.670  17.6850  0.00  0.00     0.000 OA
ATOM     36   O  IDS B   2      25.998  15.233  19.7660  0.00  0.00     0.000 OA
ENDBRANCH 25 32
BRANCH 28 37
ATOM     37   C  IDS B   2      27.028  20.083  16.3050  0.00  0.00     0.000 C
ATOM     38   O  IDS B   2      28.103  19.564  16.4900  0.00  0.00     0.000 OA
ATOM     39   O  IDS B   2      26.929  21.075  15.5410  0.00  0.00     0.000 OA
ENDBRANCH 28 37
BRANCH 24 40
ATOM     40  O4  SUS B   3      25.292  18.861  20.4000  0.00  0.00     0.000 O
BRANCH 40 44
ATOM     41  C1  SUS B   3      27.620  18.238  23.8270  0.00  0.00     0.000 C
ATOM     42  C2  SUS B   3      28.296  18.944  22.6340  0.00  0.00     0.000 C
ATOM     43  C3  SUS B   3      27.220  19.506  21.7070  0.00  0.00     0.000 C
ATOM     44  C4  SUS B   3      26.279  18.381  21.3070  0.00  0.00     0.000 C
ATOM     45  C5  SUS B   3      25.612  17.833  22.5520  0.00  0.00     0.000 C
ATOM     46  O5  SUS B   3      26.636  17.286  23.4080  0.00  0.00     0.000 O
BRANCH 42 49
ATOM     47   N  SUS B   3      29.584  18.461  23.1610  0.00  0.00     0.000 N
ATOM     49  HD  SUS B   3      29.598  18.230  23.9960  0.00  0.00     0.000 HD
ATOM     49   S  SUS B   3      30.781  19.494  22.9100  0.00  0.00     0.000 S
ATOM     50   O  SUS B   3      30.470  20.740  23.4910  0.00  0.00     0.000 OA
ATOM     51   O  SUS B   3      31.844  18.747  23.7560  0.00  0.00     0.000 OA
ATOM     52   O  SUS B   3      31.132  19.480  21.5460  0.00  0.00     0.000 OA
ENDBRANCH 42 49
BRANCH 43 53
ATOM     53   O  SUS B   3      27.890  20.050  20.5100  0.00  0.00     0.000 O
ATOM     54   S  SUS B   3      27.789  21.672  20.2660  0.00  0.00     0.000 S
ATOM     55   O  SUS B   3      28.620  22.318  21.2730  0.00  0.00     0.000 OA
ATOM     56   O  SUS B   3      28.267  21.855  18.9070  0.00  0.00     0.000 OA
ATOM     57   O  SUS B   3      26.377  22.030  20.4350  0.00  0.00     0.000 OA
ENDBRANCH 43 53
BRANCH 45 58
ATOM     58   C  SUS B   3      24.584  16.773  22.2240  0.00  0.00     0.000 C
ATOM     59   S  SUS B   3      22.888  15.181  23.3090  0.00  0.00     0.000 S
ATOM     60   O  SUS B   3      23.858  16.428  23.4160  0.00  0.00     0.000 O
ATOM     61   O  SUS B   3      23.755  14.020  23.3820  0.00  0.00     0.000 OA
ATOM     62   O  SUS B   3      22.094  15.357  24.4950  0.00  0.00     0.000 OA
ATOM     63   O  SUS B   3      22.193  15.344  22.0820  0.00  0.00     0.000 OA
ENDBRANCH 45 58
BRANCH 41 64
ATOM     64  O4  IDS B   4      27.189  19.098  24.8070  0.00  0.00     0.000 O
BRANCH 64 68
ATOM     65  C1  IDS B   4      26.824  19.750  28.3730  0.00  0.00     0.000 C
ATOM     66  C2  IDS B   4      27.831  18.703  27.8780  0.00  0.00     0.000 C
ATOM     67  C3  IDS B   4      27.280  17.749  26.8320  0.00  0.00     0.000 C
ATOM     68  C4  IDS B   4      26.391  18.438  25.8150  0.00  0.00     0.000 C
ATOM     69  C5  IDS B   4      25.451  19.389  26.5680  0.00  0.00     0.000 C
ATOM     70  O5  IDS B   4      26.228  20.375  27.2510  0.00  0.00     0.000 O
ATOM     71   O  IDS B   4      26.543  16.756  27.5160  0.00  0.00     0.000 O
ATOM     73  HD  IDS B   4      27.119  17.399  27.4430  0.00  0.00     0.000 HD
BRANCH 66 73
ATOM     73   O  IDS B   4      28.951  19.395  27.2260  0.00  0.00     0.000 O
ATOM     74   S  IDS B   4      30.454  18.967  27.6460  0.00  0.00     0.000 S
ATOM     75   O  IDS B   4      30.544  19.140  29.0800  0.00  0.00     0.000 OA
ATOM     76   O  IDS B   4      31.249  19.902  26.8900  0.00  0.00     0.000 OA
ATOM     77   O  IDS B   4      30.594  17.593  27.2260  0.00  0.00     0.000 OA
ENDBRANCH 66 73
BRANCH 69 78
ATOM     78   C  IDS B   4      24.347  19.993  25.7110  0.00  0.00     0.000 C
ATOM     79   O  IDS B   4      23.694  19.250  24.9790  0.00  0.00     0.000 OA
ATOM     80   O  IDS B   4      24.071  21.198  25.8580  0.00  0.00     0.000 OA
ENDBRANCH 69 78
BRANCH 65 81
ATOM     81  O4  SGN B   5      25.981  19.176  29.2760  0.00  0.00     0.000 O
BRANCH 81 85
ATOM     82  C1  SGN B   5      23.501  19.993  32.5660  0.00  0.00     0.000 C
ATOM     83  C2  SGN B   5      23.271  20.824  31.2950  0.00  0.00     0.000 C
ATOM     84  C3  SGN B   5      23.903  20.110  30.0920  0.00  0.00     0.000 C
ATOM     85  C4  SGN B   5      25.372  19.851  30.3790  0.00  0.00     0.000 C
ATOM     86  C5  SGN B   5      25.471  19.002  31.6430  0.00  0.00     0.000 C
ATOM     87  O5  SGN B   5      24.881  19.730  32.7370  0.00  0.00     0.000 O
ATOM     88   O  SGN B   5      23.745  20.895  28.9310  0.00  0.00     0.000 O
ATOM     90  HD  SGN B   5      23.269  20.201  29.1370  0.00  0.00     0.000 HD
BRANCH 83 92
ATOM     90   N  SGN B   5      22.230  21.346  32.2020  0.00  0.00     0.000 N
ATOM     92  HD  SGN B   5      22.550  21.483  32.9950  0.00  0.00     0.000 HD
ATOM     92   S  SGN B   5      21.262  22.494  31.6550  0.00  0.00     0.000 S
ATOM     93   O  SGN B   5      20.391  22.778  32.7550  0.00  0.00     0.000 OA
ATOM     94   O  SGN B   5      22.118  23.508  31.1420  0.00  0.00     0.000 OA
ATOM     95   O  SGN B   5      20.550  21.866  30.4760  0.00  0.00     0.000 OA
ENDBRANCH 83 92
BRANCH 86 96
ATOM     96   C  SGN B   5      26.889  18.653  32.0460  0.00  0.00     0.000 C
ATOM     97   O  SGN B   5      27.002  17.255  32.3240  0.00  0.00     0.000 O
ATOM     98   S  SGN B   5      28.197  16.482  31.5850  0.00  0.00     0.000 S
ATOM     99   O  SGN B   5      28.173  15.183  32.2130  0.00  0.00     0.000 OA
ATOM    100   O  SGN B   5      27.905  16.475  30.1970  0.00  0.00     0.000 OA
ATOM    101   O  SGN B   5      29.362  17.242  31.9040  0.00  0.00     0.000 OA
ENDBRANCH 86 96
BRANCH 82 102
ATOM    102  O4  IDS B   6      22.793  18.828  32.5660  0.00  0.00     0.000 O
BRANCH 102 106
ATOM    103  C1  IDS B   6      20.383  16.737  34.3210  0.00  0.00     0.000 C
ATOM    104  C2  IDS B   6      20.438  18.252  34.5710  0.00  0.00     0.000 C
ATOM    105  C3  IDS B   6      21.827  18.816  34.8020  0.00  0.00     0.000 C
ATOM    106  C4  IDS B   6      22.867  18.210  33.8760  0.00  0.00     0.000 C
ATOM    107  C5  IDS B   6      22.652  16.697  33.7770  0.00  0.00     0.000 C
ATOM    108  O5  IDS B   6      21.332  16.374  33.3360  0.00  0.00     0.000 O
ATOM    109   O  IDS B   6      22.172  18.596  36.1600  0.00  0.00     0.000 O
ATOM    111  HD  IDS B   6      21.670  17.932  36.3980  0.00  0.00     0.000 HD
BRANCH 104 111
ATOM    111   O  IDS B   6      19.927  18.953  33.3840  0.00  0.00     0.000 O
ATOM    112   S  IDS B   6      18.471  19.614  33.4680  0.00  0.00     0.000 S
ATOM    113   O  IDS B   6      17.584  18.506  33.7870  0.00  0.00     0.000 OA
ATOM    114   O  IDS B   6      18.504  20.682  34.4730  0.00  0.00     0.000 OA
ATOM    115   O  IDS B   6      18.351  20.089  32.1060  0.00  0.00     0.000 OA
ENDBRANCH 104 111
BRANCH 107 116
ATOM    116   C  IDS B   6      23.677  16.104  32.8180  0.00  0.00     0.000 C
ATOM    117   O  IDS B   6      24.689  15.671  33.3070  0.00  0.00     0.000 OA
ATOM    118   O  IDS B   6      23.480  16.080  31.6130  0.00  0.00     0.000 OA
ENDBRANCH 107 116
BRANCH 103 119
ATOM    119  O4  SGN B   7      20.421  16.203  35.5690  0.00  0.00     0.000 O
BRANCH 119 123
ATOM    120  C1  SGN B   7      19.809  12.421  37.2450  0.00  0.00     0.000 C
ATOM    121  C2  SGN B   7      21.224  12.755  36.7360  0.00  0.00     0.000 C
ATOM    122  C3  SGN B   7      21.380  14.268  36.5360  0.00  0.00     0.000 C
ATOM    123  C4  SGN B   7      20.266  14.786  35.6420  0.00  0.00     0.000 C
ATOM    124  C5  SGN B   7      18.900  14.397  36.2300  0.00  0.00     0.000 C
ATOM    125  O5  SGN B   7      18.797  12.965  36.4000  0.00  0.00     0.000 O
ATOM    126   O  SGN B   7      22.669  14.533  35.9700  0.00  0.00     0.000 O
ATOM    128  HD  SGN B   7      22.129  13.963  36.3360  0.00  0.00     0.000 HD
BRANCH 121 130
ATOM    128   N  SGN B   7      21.616  11.638  37.5980  0.00  0.00     0.000 N
ATOM    130  HD  SGN B   7      21.472  11.079  36.9520  0.00  0.00     0.000 HD
ATOM    130   S  SGN B   7      23.014  10.860  37.4150  0.00  0.00     0.000 S
ATOM    131   O  SGN B   7      24.004  11.881  37.3680  0.00  0.00     0.000 OA
ATOM    132   O  SGN B   7      23.086   9.835  38.3930  0.00  0.00     0.000 OA
ATOM    133   O  SGN B   7      22.741  10.104  36.0700  0.00  0.00     0.000 OA
ENDBRANCH 121 130
BRANCH 124 134
ATOM    134   C  SGN B   7      17.736  14.764  35.3580  0.00  0.00     0.000 C
ATOM    135   O  SGN B   7      17.104  13.554  34.9050  0.00  0.00     0.000 O
ATOM    136   S  SGN B   7      15.766  13.723  34.0990  0.00  0.00     0.000 S
ATOM    137   O  SGN B   7      15.382  12.400  33.6680  0.00  0.00     0.000 OA
ATOM    138   O  SGN B   7      16.095  14.602  32.9990  0.00  0.00     0.000 OA
ATOM    139   O  SGN B   7      14.875  14.306  35.0900  0.00  0.00     0.000 OA
ENDBRANCH 124 134
BRANCH 120 140
ATOM    140  O4  IDS B   8      19.271  12.717  38.4330  0.00  0.00     0.000 O
BRANCH 140 144
ATOM    141  C1  IDS B   8      18.182  11.541  41.6570  0.00  0.00     0.000 C
ATOM    142  C2  IDS B   8      18.045  10.647  40.3920  0.00  0.00     0.000 C
ATOM    143  C3  IDS B   8      17.405  11.382  39.1990  0.00  0.00     0.000 C
ATOM    144  C4  IDS B   8      17.968  12.792  39.0260  0.00  0.00     0.000 C
ATOM    145  C5  IDS B   8      18.048  13.501  40.3870  0.00  0.00     0.000 C
ATOM    146  O5  IDS B   8      18.829  12.762  41.3220  0.00  0.00     0.000 O
BRANCH 142 147
ATOM    147   O  IDS B   8      19.393  10.194  39.9570  0.00  0.00     0.000 O
ATOM    148   S  IDS B   8      19.595   8.768  39.2120  0.00  0.00     0.000 S
ATOM    149   O  IDS B   8      18.403   7.982  39.4390  0.00  0.00     0.000 OA
ATOM    150   O  IDS B   8      19.798   9.088  37.8110  0.00  0.00     0.000 OA
ATOM    151   O  IDS B   8      20.762   8.173  39.8350  0.00  0.00     0.000 OA
ENDBRANCH 142 147
BRANCH 145 152
ATOM    152   C  IDS B   8      18.692  14.870  40.2940  0.00  0.00     0.000 C
ATOM    153   O  IDS B   8      18.187  15.728  39.5790  0.00  0.00     0.000 OA
ATOM    154   O  IDS B   8      19.692  15.109  40.9470  0.00  0.00     0.000 OA
ENDBRANCH 145 152
ENDBRANCH 140 144
ENDBRANCH 120 140
ENDBRANCH 119 123
ENDBRANCH 103 119
ENDBRANCH 102 106
ENDBRANCH 82 102
ENDBRANCH 81 85
ENDBRANCH 65 81
ENDBRANCH 64 68
ENDBRANCH 41 64
ENDBRANCH 40 44
ENDBRANCH 24 40
ENDBRANCH 23 27
ENDBRANCH 1 23
TORSDOF 31
ENDMDL
MODEL 54
REMARK VINA RESULT:      -6.9      7.821     22.644
ROOT
ATOM      1  C1  SGN B   1      24.042  18.262  27.3520  0.00  0.00     0.000 C
ATOM      2  C2  SGN B   1      25.059  17.738  28.3780  0.00  0.00     0.000 C
ATOM      3  C3  SGN B   1      24.345  17.160  29.6050  0.00  0.00     0.000 C
ATOM      4  C4  SGN B   1      23.410  18.202  30.2090  0.00  0.00     0.000 C
ATOM      5  C5  SGN B   1      22.526  18.779  29.1060  0.00  0.00     0.000 C
ATOM      6  O5  SGN B   1      23.354  19.294  28.0450  0.00  0.00     0.000 O
ATOM      7   O  SGN B   1      25.290  16.717  30.5720  0.00  0.00     0.000 O
ATOM      9  HD  SGN B   1      25.474  17.562  30.5200  0.00  0.00     0.000 HD
ATOM      9   O  SGN B   1      22.610  17.594  31.2070  0.00  0.00     0.000 O
ATOM     11  HD  SGN B   1      22.794  18.439  31.1560  0.00  0.00     0.000 HD
ENDROOT
BRANCH 2 13
ATOM     11   N  SGN B   1      26.375  17.987  27.7600  0.00  0.00     0.000 N
ATOM     13  HD  SGN B   1      25.743  17.603  27.3100  0.00  0.00     0.000 HD
ATOM     13   S  SGN B   1      26.962  17.057  26.5850  0.00  0.00     0.000 S
ATOM     14   O  SGN B   1      26.025  16.059  26.2420  0.00  0.00     0.000 OA
ATOM     15   O  SGN B   1      27.493  17.899  25.5660  0.00  0.00     0.000 OA
ATOM     16   O  SGN B   1      28.173  16.455  27.3620  0.00  0.00     0.000 OA
ENDBRANCH 2 13
BRANCH 5 17
ATOM     17   C  SGN B   1      21.629  19.903  29.5620  0.00  0.00     0.000 C
ATOM     18   O  SGN B   1      20.252  19.478  29.6040  0.00  0.00     0.000 O
ATOM     19   S  SGN B   1      19.186  20.490  28.9730  0.00  0.00     0.000 S
ATOM     20   O  SGN B   1      17.894  19.954  29.3470  0.00  0.00     0.000 OA
ATOM     21   O  SGN B   1      19.490  21.756  29.5980  0.00  0.00     0.000 OA
ATOM     22   O  SGN B   1      19.436  20.462  27.5490  0.00  0.00     0.000 OA
ENDBRANCH 5 17
BRANCH 1 23
ATOM     23  O4  IDS B   2      23.322  17.841  26.2730  0.00  0.00     0.000 O
BRANCH 23 27
ATOM     24  C1  IDS B   2      24.398  18.245  22.2840  0.00  0.00     0.000 C
ATOM     25  C2  IDS B   2      24.154  19.566  23.0470  0.00  0.00     0.000 C
ATOM     26  C3  IDS B   2      24.061  19.320  24.5500  0.00  0.00     0.000 C
ATOM     27  C4  IDS B   2      23.019  18.277  24.9320  0.00  0.00     0.000 C
ATOM     28  C5  IDS B   2      22.995  17.147  23.8830  0.00  0.00     0.000 C
ATOM     29  O5  IDS B   2      24.208  17.114  23.1450  0.00  0.00     0.000 O
ATOM     30   O  IDS B   2      23.713  20.535  25.2030  0.00  0.00     0.000 O
ATOM     32  HD  IDS B   2      22.868  20.721  25.1510  0.00  0.00     0.000 HD
BRANCH 25 32
ATOM     32   O  IDS B   2      25.238  20.553  22.8210  0.00  0.00     0.000 O
ATOM     33   S  IDS B   2      24.942  22.038  22.1640  0.00  0.00     0.000 S
ATOM     34   O  IDS B   2      26.243  22.626  21.8890  0.00  0.00     0.000 OA
ATOM     35   O  IDS B   2      24.160  21.882  20.9460  0.00  0.00     0.000 OA
ATOM     36   O  IDS B   2      24.234  22.780  23.1810  0.00  0.00     0.000 OA
ENDBRANCH 25 32
BRANCH 28 37
ATOM     37   C  IDS B   2      22.686  15.717  24.3710  0.00  0.00     0.000 C
ATOM     38   O  IDS B   2      23.546  14.923  24.0690  0.00  0.00     0.000 OA
ATOM     39   O  IDS B   2      21.708  15.352  25.0690  0.00  0.00     0.000 OA
ENDBRANCH 28 37
BRANCH 24 40
ATOM     40  O4  SUS B   3      24.443  18.245  20.9360  0.00  0.00     0.000 O
BRANCH 40 44
ATOM     41  C1  SUS B   3      26.754  15.884  18.3610  0.00  0.00     0.000 C
ATOM     42  C2  SUS B   3      25.346  15.366  18.7200  0.00  0.00     0.000 C
ATOM     43  C3  SUS B   3      24.500  16.527  19.2380  0.00  0.00     0.000 C
ATOM     44  C4  SUS B   3      25.229  17.189  20.3960  0.00  0.00     0.000 C
ATOM     45  C5  SUS B   3      26.551  17.734  19.8960  0.00  0.00     0.000 C
ATOM     46  O5  SUS B   3      27.348  16.626  19.4310  0.00  0.00     0.000 O
BRANCH 42 49
ATOM     47   N  SUS B   3      24.757  14.656  17.5710  0.00  0.00     0.000 N
ATOM     49  HD  SUS B   3      23.970  14.914  17.3190  0.00  0.00     0.000 HD
ATOM     49   S  SUS B   3      24.717  13.068  17.7810  0.00  0.00     0.000 S
ATOM     50   O  SUS B   3      23.995  12.757  18.9510  0.00  0.00     0.000 OA
ATOM     51   O  SUS B   3      23.879  12.742  16.5180  0.00  0.00     0.000 OA
ATOM     52   O  SUS B   3      26.021  12.548  17.6600  0.00  0.00     0.000 OA
ENDBRANCH 42 49
BRANCH 43 53
ATOM     53   O  SUS B   3      23.212  15.978  19.7030  0.00  0.00     0.000 O
ATOM     54   S  SUS B   3      21.866  16.410  18.8640  0.00  0.00     0.000 S
ATOM     55   O  SUS B   3      21.919  15.733  17.5750  0.00  0.00     0.000 OA
ATOM     56   O  SUS B   3      20.769  15.974  19.7090  0.00  0.00     0.000 OA
ATOM     57   O  SUS B   3      21.927  17.866  18.7020  0.00  0.00     0.000 OA
ENDBRANCH 43 53
BRANCH 45 58
ATOM     58   C  SUS B   3      27.292  18.497  20.9720  0.00  0.00     0.000 C
ATOM     59   S  SUS B   3      29.653  19.028  21.8280  0.00  0.00     0.000 S
ATOM     60   O  SUS B   3      28.702  18.465  20.6930  0.00  0.00     0.000 O
ATOM     61   O  SUS B   3      29.725  17.973  22.8200  0.00  0.00     0.000 OA
ATOM     62   O  SUS B   3      30.880  19.187  21.0940  0.00  0.00     0.000 OA
ATOM     63   O  SUS B   3      29.047  20.235  22.2670  0.00  0.00     0.000 OA
ENDBRANCH 45 58
BRANCH 41 64
ATOM     64  O4  IDS B   4      26.819  16.508  17.1400  0.00  0.00     0.000 O
BRANCH 64 68
ATOM     65  C1  IDS B   4      28.141  17.353  13.8520  0.00  0.00     0.000 C
ATOM     66  C2  IDS B   4      28.048  15.887  14.2930  0.00  0.00     0.000 C
ATOM     67  C3  IDS B   4      28.567  15.620  15.6960  0.00  0.00     0.000 C
ATOM     68  C4  IDS B   4      28.176  16.702  16.6850  0.00  0.00     0.000 C
ATOM     69  C5  IDS B   4      28.408  18.065  16.0180  0.00  0.00     0.000 C
ATOM     70  O5  IDS B   4      27.576  18.170  14.8610  0.00  0.00     0.000 O
ATOM     71   O  IDS B   4      29.975  15.535  15.6140  0.00  0.00     0.000 O
ATOM     73  HD  IDS B   4      29.166  15.532  15.3040  0.00  0.00     0.000 HD
BRANCH 66 73
ATOM     73   O  IDS B   4      26.634  15.489  14.3160  0.00  0.00     0.000 O
ATOM     74   S  IDS B   4      26.205  14.167  13.4880  0.00  0.00     0.000 S
ATOM     75   O  IDS B   4      26.626  14.385  12.1210  0.00  0.00     0.000 OA
ATOM     76   O  IDS B   4      24.775  14.156  13.6680  0.00  0.00     0.000 OA
ATOM     77   O  IDS B   4      26.893  13.071  14.1290  0.00  0.00     0.000 OA
ENDBRANCH 66 73
BRANCH 69 78
ATOM     78   C  IDS B   4      28.271  19.256  16.9570  0.00  0.00     0.000 C
ATOM     79   O  IDS B   4      27.162  19.768  17.1050  0.00  0.00     0.000 OA
ATOM     80   O  IDS B   4      29.262  19.606  17.6240  0.00  0.00     0.000 OA
ENDBRANCH 69 78
BRANCH 65 81
ATOM     81  O4  SGN B   5      29.421  17.634  13.4800  0.00  0.00     0.000 O
BRANCH 81 85
ATOM     82  C1  SGN B   5      31.887  20.789  12.2120  0.00  0.00     0.000 C
ATOM     83  C2  SGN B   5      31.896  20.455  13.7120  0.00  0.00     0.000 C
ATOM     84  C3  SGN B   5      31.339  19.041  13.9260  0.00  0.00     0.000 C
ATOM     85  C4  SGN B   5      29.957  18.947  13.3020  0.00  0.00     0.000 C
ATOM     86  C5  SGN B   5      30.079  19.275  11.8160  0.00  0.00     0.000 C
ATOM     87  O5  SGN B   5      30.587  20.616  11.6790  0.00  0.00     0.000 O
ATOM     88   O  SGN B   5      31.291  18.749  15.3060  0.00  0.00     0.000 O
ATOM     90  HD  SGN B   5      31.894  18.464  14.7530  0.00  0.00     0.000 HD
BRANCH 83 92
ATOM     90   N  SGN B   5      32.092  21.573  14.6550  0.00  0.00     0.000 N
ATOM     92  HD  SGN B   5      31.575  21.493  15.3440  0.00  0.00     0.000 HD
ATOM     92   S  SGN B   5      33.589  22.027  14.9810  0.00  0.00     0.000 S
ATOM     93   O  SGN B   5      33.438  23.105  15.9120  0.00  0.00     0.000 OA
ATOM     94   O  SGN B   5      34.276  20.842  15.3670  0.00  0.00     0.000 OA
ATOM     95   O  SGN B   5      34.158  22.465  13.6490  0.00  0.00     0.000 OA
ENDBRANCH 83 92
BRANCH 86 96
ATOM     96   C  SGN B   5      28.771  19.209  11.0560  0.00  0.00     0.000 C
ATOM     97   O  SGN B   5      27.804  20.084  11.6430  0.00  0.00     0.000 O
ATOM     98   S  SGN B   5      27.063  21.091  10.6400  0.00  0.00     0.000 S
ATOM     99   O  SGN B   5      26.037  21.671  11.4720  0.00  0.00     0.000 OA
ATOM    100   O  SGN B   5      28.033  22.012  10.1670  0.00  0.00     0.000 OA
ATOM    101   O  SGN B   5      26.546  20.250   9.6100  0.00  0.00     0.000 OA
ENDBRANCH 86 96
BRANCH 82 102
ATOM    102  O4  IDS B   6      32.791  20.054  11.5060  0.00  0.00     0.000 O
BRANCH 102 106
ATOM    103  C1  IDS B   6      35.661  19.863   9.2730  0.00  0.00     0.000 C
ATOM    104  C2  IDS B   6      35.511  21.030  10.2620  0.00  0.00     0.000 C
ATOM    105  C3  IDS B   6      34.139  21.677  10.2890  0.00  0.00     0.000 C
ATOM    106  C4  IDS B   6      33.011  20.663  10.2080  0.00  0.00     0.000 C
ATOM    107  C5  IDS B   6      33.346  19.600   9.1570  0.00  0.00     0.000 C
ATOM    108  O5  IDS B   6      34.590  18.953   9.4310  0.00  0.00     0.000 O
ATOM    109   O  IDS B   6      34.065  22.600   9.2150  0.00  0.00     0.000 O
ATOM    111  HD  IDS B   6      34.662  22.317   8.6550  0.00  0.00     0.000 HD
BRANCH 104 111
ATOM    111   O  IDS B   6      35.733  20.533  11.6280  0.00  0.00     0.000 O
ATOM    112   S  IDS B   6      37.131  20.867  12.3330  0.00  0.00     0.000 S
ATOM    113   O  IDS B   6      38.133  20.295  11.4480  0.00  0.00     0.000 OA
ATOM    114   O  IDS B   6      37.226  22.321  12.5080  0.00  0.00     0.000 OA
ATOM    115   O  IDS B   6      36.951  20.135  13.5680  0.00  0.00     0.000 OA
ENDBRANCH 104 111
BRANCH 107 116
ATOM    116   C  IDS B   6      32.226  18.569   9.1100  0.00  0.00     0.000 C
ATOM    117   O  IDS B   6      32.435  17.516   9.6570  0.00  0.00     0.000 OA
ATOM    118   O  IDS B   6      31.174  18.800   8.5350  0.00  0.00     0.000 OA
ENDBRANCH 107 116
BRANCH 103 119
ATOM    119  O4  SGN B   7      35.898  20.477   8.0850  0.00  0.00     0.000 O
BRANCH 119 123
ATOM    120  C1  SGN B   7      36.861  19.197   4.2220  0.00  0.00     0.000 C
ATOM    121  C2  SGN B   7      35.377  19.465   4.5360  0.00  0.00     0.000 C
ATOM    122  C3  SGN B   7      35.240  20.293   5.8200  0.00  0.00     0.000 C
ATOM    123  C4  SGN B   7      35.995  19.615   6.9510  0.00  0.00     0.000 C
ATOM    124  C5  SGN B   7      37.458  19.386   6.5390  0.00  0.00     0.000 C
ATOM    125  O5  SGN B   7      37.540  18.602   5.3280  0.00  0.00     0.000 O
ATOM    126   O  SGN B   7      33.850  20.439   6.1330  0.00  0.00     0.000 O
ATOM    128  HD  SGN B   7      34.453  20.191   5.5640  0.00  0.00     0.000 HD
BRANCH 121 130
ATOM    128   N  SGN B   7      34.821  20.118   3.3480  0.00  0.00     0.000 N
ATOM    130  HD  SGN B   7      35.352  19.662   2.8390  0.00  0.00     0.000 HD
ATOM    130   S  SGN B   7      33.843  19.351   2.3240  0.00  0.00     0.000 S
ATOM    131   O  SGN B   7      32.837  18.762   3.1400  0.00  0.00     0.000 OA
ATOM    132   O  SGN B   7      33.489  20.251   1.2860  0.00  0.00     0.000 OA
ATOM    133   O  SGN B   7      34.856  18.359   1.6590  0.00  0.00     0.000 OA
ENDBRANCH 121 130
BRANCH 124 134
ATOM    134   C  SGN B   7      38.259  18.617   7.5480  0.00  0.00     0.000 C
ATOM    135   O  SGN B   7      37.846  17.240   7.5070  0.00  0.00     0.000 O
ATOM    136   S  SGN B   7      38.674  16.235   8.3850  0.00  0.00     0.000 S
ATOM    137   O  SGN B   7      38.017  14.955   8.2650  0.00  0.00     0.000 OA
ATOM    138   O  SGN B   7      38.624  16.772   9.7250  0.00  0.00     0.000 OA
ATOM    139   O  SGN B   7      39.989  16.286   7.7630  0.00  0.00     0.000 OA
ENDBRANCH 124 134
BRANCH 120 140
ATOM    140  O4  IDS B   8      37.797  20.078   3.8530  0.00  0.00     0.000 O
BRANCH 140 144
ATOM    141  C1  IDS B   8      40.337  22.142   2.3520  0.00  0.00     0.000 C
ATOM    142  C2  IDS B   8      40.694  21.118   3.4670  0.00  0.00     0.000 C
ATOM    143  C3  IDS B   8      39.763  21.210   4.6910  0.00  0.00     0.000 C
ATOM    144  C4  IDS B   8      38.297  21.349   4.2860  0.00  0.00     0.000 C
ATOM    145  C5  IDS B   8      38.154  22.384   3.1600  0.00  0.00     0.000 C
ATOM    146  O5  IDS B   8      38.955  22.047   2.0300  0.00  0.00     0.000 O
BRANCH 142 147
ATOM    147   O  IDS B   8      40.578  19.738   2.9290  0.00  0.00     0.000 O
ATOM    148   S  IDS B   8      41.612  18.574   3.3820  0.00  0.00     0.000 S
ATOM    149   O  IDS B   8      42.754  19.216   3.9940  0.00  0.00     0.000 OA
ATOM    150   O  IDS B   8      40.873  17.739   4.3110  0.00  0.00     0.000 OA
ATOM    151   O  IDS B   8      41.971  17.883   2.1580  0.00  0.00     0.000 OA
ENDBRANCH 142 147
BRANCH 145 152
ATOM    152   C  IDS B   8      36.733  22.495   2.6460  0.00  0.00     0.000 C
ATOM    153   O  IDS B   8      36.459  22.068   1.5300  0.00  0.00     0.000 OA
ATOM    154   O  IDS B   8      35.874  22.990   3.3540  0.00  0.00     0.000 OA
ENDBRANCH 145 152
ENDBRANCH 140 144
ENDBRANCH 120 140
ENDBRANCH 119 123
ENDBRANCH 103 119
ENDBRANCH 102 106
ENDBRANCH 82 102
ENDBRANCH 81 85
ENDBRANCH 65 81
ENDBRANCH 64 68
ENDBRANCH 41 64
ENDBRANCH 40 44
ENDBRANCH 24 40
ENDBRANCH 23 27
ENDBRANCH 1 23
TORSDOF 31
ENDMDL
MODEL 55
REMARK VINA RESULT:      -6.9      9.403     13.027
ROOT
ATOM      1  C1  SGN B   1      36.473  17.160  25.2310  0.00  0.00     0.000 C
ATOM      2  C2  SGN B   1      37.915  16.852  25.6690  0.00  0.00     0.000 C
ATOM      3  C3  SGN B   1      38.553  18.075  26.3350  0.00  0.00     0.000 C
ATOM      4  C4  SGN B   1      38.486  19.278  25.4000  0.00  0.00     0.000 C
ATOM      5  C5  SGN B   1      37.054  19.438  24.8950  0.00  0.00     0.000 C
ATOM      6  O5  SGN B   1      36.619  18.209  24.2830  0.00  0.00     0.000 O
ATOM      7   O  SGN B   1      39.901  17.800  26.6980  0.00  0.00     0.000 O
ATOM      9  HD  SGN B   1      39.926  17.697  25.8390  0.00  0.00     0.000 HD
ATOM      9   O  SGN B   1      38.889  20.441  26.1000  0.00  0.00     0.000 O
ATOM     11  HD  SGN B   1      38.914  20.338  25.2410  0.00  0.00     0.000 HD
ENDROOT
BRANCH 2 13
ATOM     11   N  SGN B   1      37.861  15.464  25.1700  0.00  0.00     0.000 N
ATOM     13  HD  SGN B   1      37.385  15.705  25.8520  0.00  0.00     0.000 HD
ATOM     13   S  SGN B   1      37.525  14.218  26.1300  0.00  0.00     0.000 S
ATOM     14   O  SGN B   1      37.254  14.672  27.4380  0.00  0.00     0.000 OA
ATOM     15   O  SGN B   1      36.579  13.383  25.4690  0.00  0.00     0.000 OA
ATOM     16   O  SGN B   1      38.906  13.498  26.0530  0.00  0.00     0.000 OA
ENDBRANCH 2 13
BRANCH 5 17
ATOM     17   C  SGN B   1      36.882  20.534  23.8720  0.00  0.00     0.000 C
ATOM     18   O  SGN B   1      35.648  21.249  24.0860  0.00  0.00     0.000 O
ATOM     19   S  SGN B   1      34.772  21.541  22.7810  0.00  0.00     0.000 S
ATOM     20   O  SGN B   1      33.736  22.452  23.2200  0.00  0.00     0.000 OA
ATOM     21   O  SGN B   1      35.708  22.132  21.8530  0.00  0.00     0.000 OA
ATOM     22   O  SGN B   1      34.270  20.249  22.3660  0.00  0.00     0.000 OA
ENDBRANCH 5 17
BRANCH 1 23
ATOM     23  O4  IDS B   2      35.195  17.108  25.7040  0.00  0.00     0.000 O
BRANCH 23 27
ATOM     24  C1  IDS B   2      31.525  17.684  27.5550  0.00  0.00     0.000 C
ATOM     25  C2  IDS B   2      31.730  18.447  26.2280  0.00  0.00     0.000 C
ATOM     26  C3  IDS B   2      32.967  17.940  25.4920  0.00  0.00     0.000 C
ATOM     27  C4  IDS B   2      34.234  17.979  26.3360  0.00  0.00     0.000 C
ATOM     28  C5  IDS B   2      33.905  17.611  27.7970  0.00  0.00     0.000 C
ATOM     29  O5  IDS B   2      32.680  16.898  27.8770  0.00  0.00     0.000 O
ATOM     30   O  IDS B   2      33.192  18.748  24.3430  0.00  0.00     0.000 O
ATOM     32  HD  IDS B   2      33.573  19.504  24.5260  0.00  0.00     0.000 HD
BRANCH 25 32
ATOM     32   O  IDS B   2      30.572  18.301  25.3120  0.00  0.00     0.000 O
ATOM     33   S  IDS B   2      29.785  19.609  24.6860  0.00  0.00     0.000 S
ATOM     34   O  IDS B   2      28.593  19.090  24.0330  0.00  0.00     0.000 OA
ATOM     35   O  IDS B   2      29.445  20.530  25.7610  0.00  0.00     0.000 OA
ATOM     36   O  IDS B   2      30.697  20.192  23.7290  0.00  0.00     0.000 OA
ENDBRANCH 25 32
BRANCH 28 37
ATOM     37   C  IDS B   2      34.970  16.839  28.6030  0.00  0.00     0.000 C
ATOM     38   O  IDS B   2      36.002  17.455  28.7250  0.00  0.00     0.000 OA
ATOM     39   O  IDS B   2      34.832  15.722  29.1600  0.00  0.00     0.000 OA
ENDBRANCH 28 37
BRANCH 24 40
ATOM     40  O4  SUS B   3      30.520  18.034  28.3840  0.00  0.00     0.000 O
BRANCH 40 44
ATOM     41  C1  SUS B   3      28.547  15.813  31.3380  0.00  0.00     0.000 C
ATOM     42  C2  SUS B   3      30.059  16.049  31.5250  0.00  0.00     0.000 C
ATOM     43  C3  SUS B   3      30.494  17.233  30.6640  0.00  0.00     0.000 C
ATOM     44  C4  SUS B   3      30.083  16.971  29.2240  0.00  0.00     0.000 C
ATOM     45  C5  SUS B   3      28.574  16.849  29.1590  0.00  0.00     0.000 C
ATOM     46  O5  SUS B   3      28.179  15.715  29.9570  0.00  0.00     0.000 O
BRANCH 42 49
ATOM     47   N  SUS B   3      30.206  16.094  32.9900  0.00  0.00     0.000 N
ATOM     49  HD  SUS B   3      30.485  16.842  33.3280  0.00  0.00     0.000 HD
ATOM     49   S  SUS B   3      31.133  14.916  33.5550  0.00  0.00     0.000 S
ATOM     50   O  SUS B   3      32.405  14.974  32.9490  0.00  0.00     0.000 OA
ATOM     51   O  SUS B   3      31.201  15.426  35.0170  0.00  0.00     0.000 OA
ATOM     52   O  SUS B   3      30.432  13.696  33.4850  0.00  0.00     0.000 OA
ENDBRANCH 42 49
BRANCH 43 53
ATOM     53   O  SUS B   3      31.963  17.345  30.7550  0.00  0.00     0.000 O
ATOM     54   S  SUS B   3      32.566  18.616  31.6050  0.00  0.00     0.000 S
ATOM     55   O  SUS B   3      32.296  18.367  33.0140  0.00  0.00     0.000 OA
ATOM     56   O  SUS B   3      33.980  18.623  31.2710  0.00  0.00     0.000 OA
ATOM     57   O  SUS B   3      31.855  19.807  31.1310  0.00  0.00     0.000 OA
ENDBRANCH 43 53
BRANCH 45 58
ATOM     58   C  SUS B   3      28.080  16.686  27.7380  0.00  0.00     0.000 C
ATOM     59   S  SUS B   3      25.979  16.149  26.3660  0.00  0.00     0.000 S
ATOM     60   O  SUS B   3      26.649  16.545  27.7450  0.00  0.00     0.000 O
ATOM     61   O  SUS B   3      26.217  14.725  26.2240  0.00  0.00     0.000 OA
ATOM     62   O  SUS B   3      24.601  16.457  26.6400  0.00  0.00     0.000 OA
ATOM     63   O  SUS B   3      26.603  16.970  25.3900  0.00  0.00     0.000 OA
ENDBRANCH 45 58
BRANCH 41 64
ATOM     64  O4  IDS B   4      27.759  16.667  32.0700  0.00  0.00     0.000 O
BRANCH 64 68
ATOM     65  C1  IDS B   4      24.942  16.587  34.3790  0.00  0.00     0.000 C
ATOM     66  C2  IDS B   4      25.635  15.284  33.9610  0.00  0.00     0.000 C
ATOM     67  C3  IDS B   4      25.889  15.159  32.4680  0.00  0.00     0.000 C
ATOM     68  C4  IDS B   4      26.348  16.460  31.8370  0.00  0.00     0.000 C
ATOM     69  C5  IDS B   4      25.467  17.592  32.3820  0.00  0.00     0.000 C
ATOM     70  O5  IDS B   4      25.634  17.678  33.7990  0.00  0.00     0.000 O
ATOM     71   O  IDS B   4      24.680  14.739  31.8710  0.00  0.00     0.000 O
ATOM     73  HD  IDS B   4      25.232  14.867  32.5260  0.00  0.00     0.000 HD
BRANCH 66 73
ATOM     73   O  IDS B   4      26.962  15.232  34.5900  0.00  0.00     0.000 O
ATOM     74   S  IDS B   4      27.258  14.035  35.6370  0.00  0.00     0.000 S
ATOM     75   O  IDS B   4      26.239  14.125  36.6610  0.00  0.00     0.000 OA
ATOM     76   O  IDS B   4      28.583  14.366  36.0980  0.00  0.00     0.000 OA
ATOM     77   O  IDS B   4      27.185  12.819  34.8640  0.00  0.00     0.000 OA
ENDBRANCH 66 73
BRANCH 69 78
ATOM     78   C  IDS B   4      25.656  18.930  31.6810  0.00  0.00     0.000 C
ATOM     79   O  IDS B   4      26.189  18.946  30.5720  0.00  0.00     0.000 OA
ATOM     80   O  IDS B   4      25.170  19.951  32.2030  0.00  0.00     0.000 OA
ENDBRANCH 69 78
BRANCH 65 81
ATOM     81  O4  SGN B   5      23.609  16.496  34.1150  0.00  0.00     0.000 O
BRANCH 81 85
ATOM     82  C1  SGN B   5      19.807  17.439  35.6300  0.00  0.00     0.000 C
ATOM     83  C2  SGN B   5      20.550  18.548  34.8700  0.00  0.00     0.000 C
ATOM     84  C3  SGN B   5      21.660  17.927  34.0110  0.00  0.00     0.000 C
ATOM     85  C4  SGN B   5      22.571  17.095  34.8950  0.00  0.00     0.000 C
ATOM     86  C5  SGN B   5      21.728  16.018  35.5740  0.00  0.00     0.000 C
ATOM     87  O5  SGN B   5      20.720  16.660  36.3790  0.00  0.00     0.000 O
ATOM     88   O  SGN B   5      22.384  18.944  33.3540  0.00  0.00     0.000 O
ATOM     90  HD  SGN B   5      21.776  18.446  32.9910  0.00  0.00     0.000 HD
BRANCH 83 92
ATOM     90   N  SGN B   5      19.306  19.180  34.3880  0.00  0.00     0.000 N
ATOM     92  HD  SGN B   5      18.625  18.660  34.5140  0.00  0.00     0.000 HD
ATOM     92   S  SGN B   5      19.058  20.718  34.7440  0.00  0.00     0.000 S
ATOM     93   O  SGN B   5      17.789  21.018  34.1500  0.00  0.00     0.000 OA
ATOM     94   O  SGN B   5      19.228  20.821  36.1520  0.00  0.00     0.000 OA
ATOM     95   O  SGN B   5      20.210  21.453  34.0940  0.00  0.00     0.000 OA
ENDBRANCH 83 92
BRANCH 86 96
ATOM     96   C  SGN B   5      22.514  15.097  36.4850  0.00  0.00     0.000 C
ATOM     97   O  SGN B   5      22.262  15.413  37.8570  0.00  0.00     0.000 O
ATOM     98   S  SGN B   5      21.848  14.184  38.8000  0.00  0.00     0.000 S
ATOM     99   O  SGN B   5      21.866  14.774  40.1170  0.00  0.00     0.000 OA
ATOM    100   O  SGN B   5      20.574  13.729  38.3720  0.00  0.00     0.000 OA
ATOM    101   O  SGN B   5      22.879  13.219  38.5980  0.00  0.00     0.000 OA
ENDBRANCH 86 96
BRANCH 82 102
ATOM    102  O4  IDS B   6      19.068  16.643  34.8060  0.00  0.00     0.000 O
BRANCH 102 106
ATOM    103  C1  IDS B   6      15.847  15.142  34.0140  0.00  0.00     0.000 C
ATOM    104  C2  IDS B   6      15.928  16.464  34.7940  0.00  0.00     0.000 C
ATOM    105  C3  IDS B   6      16.920  16.474  35.9400  0.00  0.00     0.000 C
ATOM    106  C4  IDS B   6      18.221  15.771  35.5960  0.00  0.00     0.000 C
ATOM    107  C5  IDS B   6      17.923  14.472  34.8410  0.00  0.00     0.000 C
ATOM    108  O5  IDS B   6      17.146  14.705  33.6650  0.00  0.00     0.000 O
ATOM    109   O  IDS B   6      16.302  15.869  37.0640  0.00  0.00     0.000 O
ATOM    111  HD  IDS B   6      15.682  15.373  36.7190  0.00  0.00     0.000 HD
BRANCH 104 111
ATOM    111   O  IDS B   6      16.374  17.531  33.8850  0.00  0.00     0.000 O
ATOM    112   S  IDS B   6      15.279  18.565  33.3420  0.00  0.00     0.000 S
ATOM    113   O  IDS B   6      14.298  17.735  32.6590  0.00  0.00     0.000 OA
ATOM    114   O  IDS B   6      14.752  19.323  34.4820  0.00  0.00     0.000 OA
ATOM    115   O  IDS B   6      16.112  19.342  32.4510  0.00  0.00     0.000 OA
ENDBRANCH 104 111
BRANCH 107 116
ATOM    116   C  IDS B   6      19.234  13.792  34.4690  0.00  0.00     0.000 C
ATOM    117   O  IDS B   6      19.633  13.964  33.3450  0.00  0.00     0.000 OA
ATOM    118   O  IDS B   6      19.842  13.101  35.2710  0.00  0.00     0.000 OA
ENDBRANCH 107 116
BRANCH 103 119
ATOM    119  O4  SGN B   7      15.021  14.373  34.7700  0.00  0.00     0.000 O
BRANCH 119 123
ATOM    120  C1  SGN B   7      12.770  10.911  34.1120  0.00  0.00     0.000 C
ATOM    121  C2  SGN B   7      14.161  10.746  34.7510  0.00  0.00     0.000 C
ATOM    122  C3  SGN B   7      14.670  12.091  35.2860  0.00  0.00     0.000 C
ATOM    123  C4  SGN B   7      14.619  13.135  34.1830  0.00  0.00     0.000 C
ATOM    124  C5  SGN B   7      13.196  13.218  33.6080  0.00  0.00     0.000 C
ATOM    125  O5  SGN B   7      12.759  11.932  33.1150  0.00  0.00     0.000 O
ATOM    126   O  SGN B   7      16.002  11.921  35.7830  0.00  0.00     0.000 O
ATOM    128  HD  SGN B   7      15.275  11.555  35.4890  0.00  0.00     0.000 HD
BRANCH 121 130
ATOM    128   N  SGN B   7      13.633   9.453  35.1920  0.00  0.00     0.000 N
ATOM    130  HD  SGN B   7      13.856   9.096  34.4360  0.00  0.00     0.000 HD
ATOM    130   S  SGN B   7      14.592   8.223  35.5910  0.00  0.00     0.000 S
ATOM    131   O  SGN B   7      15.531   8.767  36.5120  0.00  0.00     0.000 OA
ATOM    132   O  SGN B   7      13.777   7.124  35.9630  0.00  0.00     0.000 OA
ATOM    133   O  SGN B   7      15.157   7.838  34.1820  0.00  0.00     0.000 OA
ENDBRANCH 121 130
BRANCH 124 134
ATOM    134   C  SGN B   7      13.070  14.142  32.4320  0.00  0.00     0.000 C
ATOM    135   O  SGN B   7      13.645  13.499  31.2810  0.00  0.00     0.000 O
ATOM    136   S  SGN B   7      13.476  14.241  29.9070  0.00  0.00     0.000 S
ATOM    137   O  SGN B   7      14.214  13.470  28.9350  0.00  0.00     0.000 OA
ATOM    138   O  SGN B   7      14.029  15.560  30.1190  0.00  0.00     0.000 OA
ATOM    139   O  SGN B   7      12.035  14.216  29.7130  0.00  0.00     0.000 OA
ENDBRANCH 124 134
BRANCH 120 140
ATOM    140  O4  IDS B   8      11.614  11.201  34.7190  0.00  0.00     0.000 O
BRANCH 140 144
ATOM    141  C1  IDS B   8       8.415  10.240  36.0620  0.00  0.00     0.000 C
ATOM    142  C2  IDS B   8       8.996   9.538  34.8020  0.00  0.00     0.000 C
ATOM    143  C3  IDS B   8       9.506  10.530  33.7400  0.00  0.00     0.000 C
ATOM    144  C4  IDS B   8      10.309  11.672  34.3620  0.00  0.00     0.000 C
ATOM    145  C5  IDS B   8       9.584  12.214  35.6030  0.00  0.00     0.000 C
ATOM    146  O5  IDS B   8       9.348  11.188  36.5650  0.00  0.00     0.000 O
BRANCH 142 147
ATOM    147   O  IDS B   8      10.148   8.685  35.1960  0.00  0.00     0.000 O
ATOM    148   S  IDS B   8      10.441   7.277  34.4470  0.00  0.00     0.000 S
ATOM    149   O  IDS B   8       9.244   6.907  33.7260  0.00  0.00     0.000 OA
ATOM    150   O  IDS B   8      11.569   7.531  33.5710  0.00  0.00     0.000 OA
ATOM    151   O  IDS B   8      10.745   6.336  35.5090  0.00  0.00     0.000 OA
ENDBRANCH 142 147
BRANCH 145 152
ATOM    152   C  IDS B   8      10.380  13.284  36.3230  0.00  0.00     0.000 C
ATOM    153   O  IDS B   8      10.519  14.385  35.8030  0.00  0.00     0.000 OA
ATOM    154   O  IDS B   8      10.857  13.045  37.4180  0.00  0.00     0.000 OA
ENDBRANCH 145 152
ENDBRANCH 140 144
ENDBRANCH 120 140
ENDBRANCH 119 123
ENDBRANCH 103 119
ENDBRANCH 102 106
ENDBRANCH 82 102
ENDBRANCH 81 85
ENDBRANCH 65 81
ENDBRANCH 64 68
ENDBRANCH 41 64
ENDBRANCH 40 44
ENDBRANCH 24 40
ENDBRANCH 23 27
ENDBRANCH 1 23
TORSDOF 31
ENDMDL
MODEL 56
REMARK VINA RESULT:      -6.9     11.525     16.292
ROOT
ATOM      1  C1  SGN B   1      20.299  19.824  19.4020  0.00  0.00     0.000 C
ATOM      2  C2  SGN B   1      19.246  18.718  19.5860  0.00  0.00     0.000 C
ATOM      3  C3  SGN B   1      19.821  17.553  20.3990  0.00  0.00     0.000 C
ATOM      4  C4  SGN B   1      21.091  17.026  19.7390  0.00  0.00     0.000 C
ATOM      5  C5  SGN B   1      22.029  18.198  19.4580  0.00  0.00     0.000 C
ATOM      6  O5  SGN B   1      21.340  19.189  18.6720  0.00  0.00     0.000 O
ATOM      7   O  SGN B   1      18.859  16.513  20.5300  0.00  0.00     0.000 O
ATOM      9  HD  SGN B   1      18.962  16.550  19.6710  0.00  0.00     0.000 HD
ATOM      9   O  SGN B   1      21.718  16.095  20.6020  0.00  0.00     0.000 O
ATOM     11  HD  SGN B   1      21.821  16.133  19.7430  0.00  0.00     0.000 HD
ENDROOT
BRANCH 2 13
ATOM     11   N  SGN B   1      18.123  19.333  18.8540  0.00  0.00     0.000 N
ATOM     13  HD  SGN B   1      18.486  19.741  19.5260  0.00  0.00     0.000 HD
ATOM     13   S  SGN B   1      17.095  20.353  19.5560  0.00  0.00     0.000 S
ATOM     14   O  SGN B   1      17.474  20.578  20.8960  0.00  0.00     0.000 OA
ATOM     15   O  SGN B   1      16.900  21.464  18.6870  0.00  0.00     0.000 OA
ATOM     16   O  SGN B   1      15.812  19.470  19.4700  0.00  0.00     0.000 OA
ENDBRANCH 2 13
BRANCH 5 17
ATOM     17   C  SGN B   1      23.279  17.816  18.7050  0.00  0.00     0.000 C
ATOM     18   O  SGN B   1      22.986  16.848  17.6780  0.00  0.00     0.000 O
ATOM     19   S  SGN B   1      23.990  15.607  17.5760  0.00  0.00     0.000 S
ATOM     20   O  SGN B   1      23.626  14.929  16.3500  0.00  0.00     0.000 OA
ATOM     21   O  SGN B   1      25.299  16.216  17.5330  0.00  0.00     0.000 OA
ATOM     22   O  SGN B   1      23.744  14.824  18.7670  0.00  0.00     0.000 OA
ENDBRANCH 5 17
BRANCH 1 23
ATOM     23  O4  IDS B   2      20.754  20.957  20.0090  0.00  0.00     0.000 O
BRANCH 23 27
ATOM     24  C1  IDS B   2      23.018  20.283  23.4230  0.00  0.00     0.000 C
ATOM     25  C2  IDS B   2      21.494  20.403  23.6460  0.00  0.00     0.000 C
ATOM     26  C3  IDS B   2      20.742  20.350  22.3180  0.00  0.00     0.000 C
ATOM     27  C4  IDS B   2      21.222  21.381  21.3060  0.00  0.00     0.000 C
ATOM     28  C5  IDS B   2      22.751  21.550  21.4100  0.00  0.00     0.000 C
ATOM     29  O5  IDS B   2      23.345  20.421  22.0340  0.00  0.00     0.000 O
ATOM     30   O  IDS B   2      19.359  20.588  22.5530  0.00  0.00     0.000 O
ATOM     32  HD  IDS B   2      19.171  21.427  22.6600  0.00  0.00     0.000 HD
BRANCH 25 32
ATOM     32   O  IDS B   2      20.965  19.316  24.5050  0.00  0.00     0.000 O
ATOM     33   S  IDS B   2      20.182  19.629  25.9240  0.00  0.00     0.000 S
ATOM     34   O  IDS B   2      20.016  18.345  26.5860  0.00  0.00     0.000 OA
ATOM     35   O  IDS B   2      20.983  20.542  26.7270  0.00  0.00     0.000 OA
ATOM     36   O  IDS B   2      18.908  20.198  25.5500  0.00  0.00     0.000 OA
ENDBRANCH 25 32
BRANCH 28 37
ATOM     37   C  IDS B   2      23.532  21.855  20.1150  0.00  0.00     0.000 C
ATOM     38   O  IDS B   2      23.417  23.004  19.7590  0.00  0.00     0.000 OA
ATOM     39   O  IDS B   2      24.279  21.070  19.4810  0.00  0.00     0.000 OA
ENDBRANCH 28 37
BRANCH 24 40
ATOM     40  O4  SUS B   3      23.860  20.377  24.4720  0.00  0.00     0.000 O
BRANCH 40 44
ATOM     41  C1  SUS B   3      27.235  18.086  25.4270  0.00  0.00     0.000 C
ATOM     42  C2  SUS B   3      27.427  19.239  24.4220  0.00  0.00     0.000 C
ATOM     43  C3  SUS B   3      26.271  20.227  24.5630  0.00  0.00     0.000 C
ATOM     44  C4  SUS B   3      24.959  19.475  24.3970  0.00  0.00     0.000 C
ATOM     45  C5  SUS B   3      24.848  18.436  25.4940  0.00  0.00     0.000 C
ATOM     46  O5  SUS B   3      25.932  17.498  25.3370  0.00  0.00     0.000 O
BRANCH 42 49
ATOM     47   N  SUS B   3      28.519  18.519  23.7460  0.00  0.00     0.000 N
ATOM     49  HD  SUS B   3      28.822  17.812  24.1440  0.00  0.00     0.000 HD
ATOM     49   S  SUS B   3      29.764  19.467  23.4020  0.00  0.00     0.000 S
ATOM     50   O  SUS B   3      30.251  20.066  24.5810  0.00  0.00     0.000 OA
ATOM     51   O  SUS B   3      30.720  18.343  22.9250  0.00  0.00     0.000 OA
ATOM     52   O  SUS B   3      29.423  20.317  22.3310  0.00  0.00     0.000 OA
ENDBRANCH 42 49
BRANCH 43 53
ATOM     53   O  SUS B   3      26.406  21.240  23.4980  0.00  0.00     0.000 O
ATOM     54   S  SUS B   3      26.791  22.769  23.9630  0.00  0.00     0.000 S
ATOM     55   O  SUS B   3      28.178  22.754  24.4050  0.00  0.00     0.000 OA
ATOM     56   O  SUS B   3      26.565  23.566  22.7710  0.00  0.00     0.000 OA
ATOM     57   O  SUS B   3      25.886  23.107  25.0650  0.00  0.00     0.000 OA
ENDBRANCH 43 53
BRANCH 45 58
ATOM     58   C  SUS B   3      23.520  17.712  25.4560  0.00  0.00     0.000 C
ATOM     59   S  SUS B   3      22.322  15.718  24.3730  0.00  0.00     0.000 S
ATOM     60   O  SUS B   3      23.661  16.497  24.7010  0.00  0.00     0.000 O
ATOM     61   O  SUS B   3      21.718  16.447  23.2740  0.00  0.00     0.000 OA
ATOM     62   O  SUS B   3      22.847  14.441  23.9700  0.00  0.00     0.000 OA
ATOM     63   O  SUS B   3      21.578  15.715  25.5830  0.00  0.00     0.000 OA
ENDBRANCH 45 58
BRANCH 41 64
ATOM     64  O4  IDS B   4      27.623  18.397  26.7070  0.00  0.00     0.000 O
BRANCH 64 68
ATOM     65  C1  IDS B   4      28.739  18.039  30.1570  0.00  0.00     0.000 C
ATOM     66  C2  IDS B   4      29.709  17.768  29.0000  0.00  0.00     0.000 C
ATOM     67  C3  IDS B   4      29.136  16.901  27.8910  0.00  0.00     0.000 C
ATOM     68  C4  IDS B   4      27.693  17.236  27.5660  0.00  0.00     0.000 C
ATOM     69  C5  IDS B   4      26.933  17.408  28.8880  0.00  0.00     0.000 C
ATOM     70  O5  IDS B   4      27.507  18.490  29.6240  0.00  0.00     0.000 O
ATOM     71   O  IDS B   4      29.230  15.558  28.3190  0.00  0.00     0.000 O
ATOM     73  HD  IDS B   4      29.419  16.403  28.3300  0.00  0.00     0.000 HD
BRANCH 66 73
ATOM     73   O  IDS B   4      30.050  19.046  28.3600  0.00  0.00     0.000 O
ATOM     74   S  IDS B   4      31.593  19.530  28.4080  0.00  0.00     0.000 S
ATOM     75   O  IDS B   4      31.966  19.571  29.8060  0.00  0.00     0.000 OA
ATOM     76   O  IDS B   4      31.517  20.826  27.7830  0.00  0.00     0.000 OA
ATOM     77   O  IDS B   4      32.330  18.547  27.6500  0.00  0.00     0.000 OA
ENDBRANCH 66 73
BRANCH 69 78
ATOM     78   C  IDS B   4      25.423  17.531  28.7340  0.00  0.00     0.000 C
ATOM     79   O  IDS B   4      24.763  16.511  28.5410  0.00  0.00     0.000 OA
ATOM     80   O  IDS B   4      24.895  18.643  28.9150  0.00  0.00     0.000 OA
ENDBRANCH 69 78
BRANCH 65 81
ATOM     81  O4  SGN B   5      28.693  16.949  30.9730  0.00  0.00     0.000 O
BRANCH 81 85
ATOM     82  C1  SGN B   5      28.342  15.803  34.9980  0.00  0.00     0.000 C
ATOM     83  C2  SGN B   5      27.038  15.953  34.1990  0.00  0.00     0.000 C
ATOM     84  C3  SGN B   5      27.349  15.910  32.6970  0.00  0.00     0.000 C
ATOM     85  C4  SGN B   5      28.378  16.976  32.3670  0.00  0.00     0.000 C
ATOM     86  C5  SGN B   5      29.630  16.709  33.2000  0.00  0.00     0.000 C
ATOM     87  O5  SGN B   5      29.280  16.782  34.5950  0.00  0.00     0.000 O
ATOM     88   O  SGN B   5      26.164  16.105  31.9560  0.00  0.00     0.000 O
ATOM     90  HD  SGN B   5      26.551  15.342  32.0930  0.00  0.00     0.000 HD
BRANCH 83 92
ATOM     90   N  SGN B   5      26.340  14.933  35.0050  0.00  0.00     0.000 N
ATOM     92  HD  SGN B   5      26.897  14.499  35.5070  0.00  0.00     0.000 HD
ATOM     92   S  SGN B   5      24.969  15.345  35.7150  0.00  0.00     0.000 S
ATOM     93   O  SGN B   5      24.559  14.161  36.4090  0.00  0.00     0.000 OA
ATOM     94   O  SGN B   5      25.253  16.534  36.4420  0.00  0.00     0.000 OA
ATOM     95   O  SGN B   5      24.045  15.720  34.5780  0.00  0.00     0.000 OA
ENDBRANCH 83 92
BRANCH 86 96
ATOM     96   C  SGN B   5      30.755  17.696  32.9640  0.00  0.00     0.000 C
ATOM     97   O  SGN B   5      30.292  19.037  33.1410  0.00  0.00     0.000 O
ATOM     98   S  SGN B   5      31.165  19.962  34.1170  0.00  0.00     0.000 S
ATOM     99   O  SGN B   5      30.578  21.267  33.9280  0.00  0.00     0.000 OA
ATOM    100   O  SGN B   5      31.035  19.439  35.4300  0.00  0.00     0.000 OA
ATOM    101   O  SGN B   5      32.494  19.861  33.6070  0.00  0.00     0.000 OA
ENDBRANCH 86 96
BRANCH 82 102
ATOM    102  O4  IDS B   6      28.881  14.556  34.8910  0.00  0.00     0.000 O
BRANCH 102 106
ATOM    103  C1  IDS B   6      30.227  11.455  36.2430  0.00  0.00     0.000 C
ATOM    104  C2  IDS B   6      29.006  12.129  36.8890  0.00  0.00     0.000 C
ATOM    105  C3  IDS B   6      29.145  13.621  37.1240  0.00  0.00     0.000 C
ATOM    106  C4  IDS B   6      29.825  14.335  35.9690  0.00  0.00     0.000 C
ATOM    107  C5  IDS B   6      31.023  13.513  35.4850  0.00  0.00     0.000 C
ATOM    108  O5  IDS B   6      30.643  12.189  35.1070  0.00  0.00     0.000 O
ATOM    109   O  IDS B   6      29.867  13.812  38.3300  0.00  0.00     0.000 O
ATOM    111  HD  IDS B   6      30.308  13.074  38.4280  0.00  0.00     0.000 HD
BRANCH 104 111
ATOM    111   O  IDS B   6      27.849  11.983  35.9930  0.00  0.00     0.000 O
ATOM    112   S  IDS B   6      26.626  11.074  36.4840  0.00  0.00     0.000 S
ATOM    113   O  IDS B   6      27.215   9.765  36.7200  0.00  0.00     0.000 OA
ATOM    114   O  IDS B   6      26.029  11.701  37.6690  0.00  0.00     0.000 OA
ATOM    115   O  IDS B   6      25.796  11.140  35.3010  0.00  0.00     0.000 OA
ENDBRANCH 104 111
BRANCH 107 116
ATOM    116   C  IDS B   6      31.676  14.220  34.3050  0.00  0.00     0.000 C
ATOM    117   O  IDS B   6      31.320  13.880  33.2050  0.00  0.00     0.000 OA
ATOM    118   O  IDS B   6      32.525  15.081  34.4710  0.00  0.00     0.000 OA
ENDBRANCH 107 116
BRANCH 103 119
ATOM    119  O4  SGN B   7      31.065  11.238  37.2900  0.00  0.00     0.000 O
BRANCH 119 123
ATOM    120  C1  SGN B   7      34.454   8.883  37.9660  0.00  0.00     0.000 C
ATOM    121  C2  SGN B   7      34.675  10.326  37.4740  0.00  0.00     0.000 C
ATOM    122  C3  SGN B   7      33.401  11.159  37.6620  0.00  0.00     0.000 C
ATOM    123  C4  SGN B   7      32.225  10.457  37.0030  0.00  0.00     0.000 C
ATOM    124  C5  SGN B   7      32.094   9.028  37.5540  0.00  0.00     0.000 C
ATOM    125  O5  SGN B   7      33.315   8.280  37.3540  0.00  0.00     0.000 O
ATOM    126   O  SGN B   7      33.609  12.462  37.1060  0.00  0.00     0.000 O
ATOM    128  HD  SGN B   7      33.948  11.701  37.3450  0.00  0.00     0.000 HD
BRANCH 121 130
ATOM    128   N  SGN B   7      36.087   9.951  37.3590  0.00  0.00     0.000 N
ATOM    130  HD  SGN B   7      36.136  10.346  36.5900  0.00  0.00     0.000 HD
ATOM    130   S  SGN B   7      37.276  11.023  37.5280  0.00  0.00     0.000 S
ATOM    131   O  SGN B   7      36.994  11.704  38.7450  0.00  0.00     0.000 OA
ATOM    132   O  SGN B   7      38.512  10.349  37.3530  0.00  0.00     0.000 OA
ATOM    133   O  SGN B   7      37.092  11.857  36.2150  0.00  0.00     0.000 OA
ENDBRANCH 121 130
BRANCH 124 134
ATOM    134   C  SGN B   7      31.031   8.212  36.8800  0.00  0.00     0.000 C
ATOM    135   O  SGN B   7      30.992   6.912  37.4940  0.00  0.00     0.000 O
ATOM    136   S  SGN B   7      29.837   5.954  37.0310  0.00  0.00     0.000 S
ATOM    137   O  SGN B   7      30.064   4.693  37.6970  0.00  0.00     0.000 OA
ATOM    138   O  SGN B   7      29.970   5.866  35.5950  0.00  0.00     0.000 OA
ATOM    139   O  SGN B   7      28.647   6.657  37.4840  0.00  0.00     0.000 OA
ENDBRANCH 124 134
BRANCH 120 140
ATOM    140  O4  IDS B   8      34.265   8.461  39.2210  0.00  0.00     0.000 O
BRANCH 140 144
ATOM    141  C1  IDS B   8      35.509   6.847  42.1890  0.00  0.00     0.000 C
ATOM    142  C2  IDS B   8      35.964   6.384  40.7760  0.00  0.00     0.000 C
ATOM    143  C3  IDS B   8      34.790   6.173  39.8020  0.00  0.00     0.000 C
ATOM    144  C4  IDS B   8      33.762   7.299  39.8920  0.00  0.00     0.000 C
ATOM    145  C5  IDS B   8      33.463   7.628  41.3630  0.00  0.00     0.000 C
ATOM    146  O5  IDS B   8      34.648   7.974  42.0770  0.00  0.00     0.000 O
BRANCH 142 147
ATOM    147   O  IDS B   8      36.852   7.415  40.1780  0.00  0.00     0.000 O
ATOM    148   S  IDS B   8      38.058   7.001  39.1760  0.00  0.00     0.000 S
ATOM    149   O  IDS B   8      38.294   5.584  39.3360  0.00  0.00     0.000 OA
ATOM    150   O  IDS B   8      37.592   7.346  37.8460  0.00  0.00     0.000 OA
ATOM    151   O  IDS B   8      39.197   7.791  39.6020  0.00  0.00     0.000 OA
ENDBRANCH 142 147
BRANCH 145 152
ATOM    152   C  IDS B   8      32.523   8.806  41.5180  0.00  0.00     0.000 C
ATOM    153   O  IDS B   8      32.937   9.847  42.0160  0.00  0.00     0.000 OA
ATOM    154   O  IDS B   8      31.373   8.713  41.1290  0.00  0.00     0.000 OA
ENDBRANCH 145 152
ENDBRANCH 140 144
ENDBRANCH 120 140
ENDBRANCH 119 123
ENDBRANCH 103 119
ENDBRANCH 102 106
ENDBRANCH 82 102
ENDBRANCH 81 85
ENDBRANCH 65 81
ENDBRANCH 64 68
ENDBRANCH 41 64
ENDBRANCH 40 44
ENDBRANCH 24 40
ENDBRANCH 23 27
ENDBRANCH 1 23
TORSDOF 31
ENDMDL
MODEL 57
REMARK VINA RESULT:      -6.9      9.204     18.898
ROOT
ATOM      1  C1  SGN B   1      22.339  19.317  27.2770  0.00  0.00     0.000 C
ATOM      2  C2  SGN B   1      23.674  18.560  27.3740  0.00  0.00     0.000 C
ATOM      3  C3  SGN B   1      23.675  17.615  28.5800  0.00  0.00     0.000 C
ATOM      4  C4  SGN B   1      23.365  18.390  29.8570  0.00  0.00     0.000 C
ATOM      5  C5  SGN B   1      22.107  19.227  29.6390  0.00  0.00     0.000 C
ATOM      6  O5  SGN B   1      22.282  20.068  28.4820  0.00  0.00     0.000 O
ATOM      7   O  SGN B   1      24.928  16.950  28.6930  0.00  0.00     0.000 O
ATOM      9  HD  SGN B   1      25.161  17.779  28.7770  0.00  0.00     0.000 HD
ATOM      9   O  SGN B   1      23.168  17.481  30.9240  0.00  0.00     0.000 O
ATOM     11  HD  SGN B   1      23.401  18.310  31.0070  0.00  0.00     0.000 HD
ENDROOT
BRANCH 2 13
ATOM     11   N  SGN B   1      24.440  19.059  26.2160  0.00  0.00     0.000 N
ATOM     13  HD  SGN B   1      23.632  18.766  26.1160  0.00  0.00     0.000 HD
ATOM     13   S  SGN B   1      24.185  18.523  24.7210  0.00  0.00     0.000 S
ATOM     14   O  SGN B   1      23.126  17.590  24.7140  0.00  0.00     0.000 OA
ATOM     15   O  SGN B   1      24.136  19.643  23.8430  0.00  0.00     0.000 OA
ATOM     16   O  SGN B   1      25.560  17.822  24.4970  0.00  0.00     0.000 OA
ENDBRANCH 2 13
BRANCH 5 17
ATOM     17   C  SGN B   1      21.758  20.126  30.8000  0.00  0.00     0.000 C
ATOM     18   O  SGN B   1      22.941  20.742  31.3470  0.00  0.00     0.000 O
ATOM     19   S  SGN B   1      23.060  20.737  32.9420  0.00  0.00     0.000 S
ATOM     20   O  SGN B   1      24.184  21.601  33.2360  0.00  0.00     0.000 OA
ATOM     21   O  SGN B   1      21.793  21.263  33.3910  0.00  0.00     0.000 OA
ATOM     22   O  SGN B   1      23.284  19.353  33.2990  0.00  0.00     0.000 OA
ENDBRANCH 5 17
BRANCH 1 23
ATOM     23  O4  IDS B   2      21.101  19.202  26.7190  0.00  0.00     0.000 O
BRANCH 23 27
ATOM     24  C1  IDS B   2      17.946  19.649  24.0580  0.00  0.00     0.000 C
ATOM     25  C2  IDS B   2      19.228  20.440  23.7130  0.00  0.00     0.000 C
ATOM     26  C3  IDS B   2      20.402  19.979  24.5720  0.00  0.00     0.000 C
ATOM     27  C4  IDS B   2      20.120  20.036  26.0670  0.00  0.00     0.000 C
ATOM     28  C5  IDS B   2      18.657  19.635  26.3430  0.00  0.00     0.000 C
ATOM     29  O5  IDS B   2      18.122  18.889  25.2600  0.00  0.00     0.000 O
ATOM     30   O  IDS B   2      21.526  20.811  24.3140  0.00  0.00     0.000 O
ATOM     32  HD  IDS B   2      21.488  21.574  24.7230  0.00  0.00     0.000 HD
BRANCH 25 32
ATOM     32   O  IDS B   2      19.621  20.278  22.2910  0.00  0.00     0.000 O
ATOM     33   S  IDS B   2      19.675  21.558  21.2510  0.00  0.00     0.000 S
ATOM     34   O  IDS B   2      19.874  20.994  19.9250  0.00  0.00     0.000 OA
ATOM     35   O  IDS B   2      18.425  22.301  21.3320  0.00  0.00     0.000 OA
ATOM     36   O  IDS B   2      20.812  22.348  21.6630  0.00  0.00     0.000 OA
ENDBRANCH 25 32
BRANCH 28 37
ATOM     37   C  IDS B   2      18.352  18.878  27.6520  0.00  0.00     0.000 C
ATOM     38   O  IDS B   2      17.594  17.951  27.4900  0.00  0.00     0.000 OA
ATOM     39   O  IDS B   2      18.850  19.095  28.7840  0.00  0.00     0.000 OA
ENDBRANCH 28 37
BRANCH 24 40
ATOM     40  O4  SUS B   3      16.781  19.959  23.4520  0.00  0.00     0.000 O
BRANCH 40 44
ATOM     41  C1  SUS B   3      13.621  17.496  22.2300  0.00  0.00     0.000 C
ATOM     42  C2  SUS B   3      13.863  17.632  23.7460  0.00  0.00     0.000 C
ATOM     43  C3  SUS B   3      14.688  18.889  24.0130  0.00  0.00     0.000 C
ATOM     44  C4  SUS B   3      15.963  18.824  23.1870  0.00  0.00     0.000 C
ATOM     45  C5  SUS B   3      15.595  18.786  21.7180  0.00  0.00     0.000 C
ATOM     46  O5  SUS B   3      14.835  17.585  21.4760  0.00  0.00     0.000 O
BRANCH 42 49
ATOM     47   N  SUS B   3      12.541  17.545  24.3910  0.00  0.00     0.000 N
ATOM     49  HD  SUS B   3      12.304  18.218  24.8810  0.00  0.00     0.000 HD
ATOM     49   S  SUS B   3      12.364  16.210  25.2590  0.00  0.00     0.000 S
ATOM     50   O  SUS B   3      13.375  16.138  26.2390  0.00  0.00     0.000 OA
ATOM     51   O  SUS B   3      11.006  16.592  25.9010  0.00  0.00     0.000 OA
ATOM     52   O  SUS B   3      12.213  15.107  24.3950  0.00  0.00     0.000 OA
ENDBRANCH 42 49
BRANCH 43 53
ATOM     53   O  SUS B   3      15.022  18.917  25.4500  0.00  0.00     0.000 O
ATOM     54   S  SUS B   3      14.310  20.084  26.3630  0.00  0.00     0.000 S
ATOM     55   O  SUS B   3      12.901  19.740  26.4900  0.00  0.00     0.000 OA
ATOM     56   O  SUS B   3      15.039  20.042  27.6180  0.00  0.00     0.000 OA
ATOM     57   O  SUS B   3      14.485  21.344  25.6350  0.00  0.00     0.000 OA
ENDBRANCH 43 53
BRANCH 45 58
ATOM     58   C  SUS B   3      16.816  18.822  20.8260  0.00  0.00     0.000 C
ATOM     59   S  SUS B   3      18.667  17.334  19.8530  0.00  0.00     0.000 S
ATOM     60   O  SUS B   3      17.272  17.479  20.5890  0.00  0.00     0.000 O
ATOM     61   O  SUS B   3      19.663  17.596  20.8740  0.00  0.00     0.000 OA
ATOM     62   O  SUS B   3      18.621  15.950  19.4640  0.00  0.00     0.000 OA
ATOM     63   O  SUS B   3      18.631  18.267  18.7840  0.00  0.00     0.000 OA
ENDBRANCH 45 58
BRANCH 41 64
ATOM     64  O4  IDS B   4      12.607  18.293  21.7570  0.00  0.00     0.000 O
BRANCH 64 68
ATOM     65  C1  IDS B   4       9.873  19.373  19.6040  0.00  0.00     0.000 C
ATOM     66  C2  IDS B   4       9.902  17.942  20.1560  0.00  0.00     0.000 C
ATOM     67  C3  IDS B   4      11.248  17.248  20.0290  0.00  0.00     0.000 C
ATOM     68  C4  IDS B   4      12.417  18.166  20.3310  0.00  0.00     0.000 C
ATOM     69  C5  IDS B   4      12.166  19.506  19.6260  0.00  0.00     0.000 C
ATOM     70  O5  IDS B   4      10.968  20.092  20.1420  0.00  0.00     0.000 O
ATOM     71   O  IDS B   4      11.348  16.767  18.7040  0.00  0.00     0.000 O
ATOM     73  HD  IDS B   4      10.935  17.069  19.4030  0.00  0.00     0.000 HD
BRANCH 66 73
ATOM     73   O  IDS B   4       9.619  17.985  21.5970  0.00  0.00     0.000 O
ATOM     74   S  IDS B   4       8.873  16.713  22.2620  0.00  0.00     0.000 S
ATOM     75   O  IDS B   4       7.638  16.533  21.5290  0.00  0.00     0.000 OA
ATOM     76   O  IDS B   4       8.690  17.154  23.6210  0.00  0.00     0.000 OA
ATOM     77   O  IDS B   4       9.791  15.608  22.1140  0.00  0.00     0.000 OA
ENDBRANCH 66 73
BRANCH 69 78
ATOM     78   C  IDS B   4      13.351  20.461  19.6500  0.00  0.00     0.000 C
ATOM     79   O  IDS B   4      13.418  21.298  20.5500  0.00  0.00     0.000 OA
ATOM     80   O  IDS B   4      14.266  20.296  18.8230  0.00  0.00     0.000 OA
ENDBRANCH 69 78
BRANCH 65 81
ATOM     81  O4  SGN B   5       9.774  19.333  18.2460  0.00  0.00     0.000 O
BRANCH 81 85
ATOM     82  C1  SGN B   5       8.873  21.845  15.0030  0.00  0.00     0.000 C
ATOM     83  C2  SGN B   5       9.395  22.517  16.2820  0.00  0.00     0.000 C
ATOM     84  C3  SGN B   5      10.096  21.472  17.1610  0.00  0.00     0.000 C
ATOM     85  C4  SGN B   5       9.139  20.326  17.4370  0.00  0.00     0.000 C
ATOM     86  C5  SGN B   5       8.711  19.727  16.0990  0.00  0.00     0.000 C
ATOM     87  O5  SGN B   5       8.044  20.746  15.3300  0.00  0.00     0.000 O
ATOM     88   O  SGN B   5      10.528  22.070  18.3640  0.00  0.00     0.000 O
ATOM     90  HD  SGN B   5      11.033  21.887  17.6840  0.00  0.00     0.000 HD
BRANCH 83 92
ATOM     90   N  SGN B   5       8.761  23.764  15.8120  0.00  0.00     0.000 N
ATOM     92  HD  SGN B   5       7.940  23.816  16.0820  0.00  0.00     0.000 HD
ATOM     92   S  SGN B   5       9.598  25.121  15.9220  0.00  0.00     0.000 S
ATOM     93   O  SGN B   5       8.718  26.123  15.4000  0.00  0.00     0.000 OA
ATOM     94   O  SGN B   5      10.039  25.193  17.2730  0.00  0.00     0.000 OA
ATOM     95   O  SGN B   5      10.819  24.890  15.0590  0.00  0.00     0.000 OA
ENDBRANCH 83 92
BRANCH 86 96
ATOM     96   C  SGN B   5       7.757  18.556  16.2200  0.00  0.00     0.000 C
ATOM     97   O  SGN B   5       8.171  17.482  15.3730  0.00  0.00     0.000 O
ATOM     98   S  SGN B   5       8.282  16.040  16.0650  0.00  0.00     0.000 S
ATOM     99   O  SGN B   5       8.510  15.164  14.9400  0.00  0.00     0.000 OA
ATOM    100   O  SGN B   5       9.350  16.096  16.9970  0.00  0.00     0.000 OA
ATOM    101   O  SGN B   5       7.012  15.844  16.6850  0.00  0.00     0.000 OA
ENDBRANCH 86 96
BRANCH 82 102
ATOM    102  O4  IDS B   6       9.877  21.452  14.1700  0.00  0.00     0.000 O
BRANCH 102 106
ATOM    103  C1  IDS B   6      11.835  21.261  11.1060  0.00  0.00     0.000 C
ATOM    104  C2  IDS B   6      11.617  22.606  11.8170  0.00  0.00     0.000 C
ATOM    105  C3  IDS B   6      10.186  22.891  12.2300  0.00  0.00     0.000 C
ATOM    106  C4  IDS B   6       9.483  21.667  12.7910  0.00  0.00     0.000 C
ATOM    107  C5  IDS B   6       9.812  20.442  11.9330  0.00  0.00     0.000 C
ATOM    108  O5  IDS B   6      11.220  20.219  11.8400  0.00  0.00     0.000 O
ATOM    109   O  IDS B   6       9.493  23.396  11.1000  0.00  0.00     0.000 O
ATOM    111  HD  IDS B   6       9.951  23.102  10.4260  0.00  0.00     0.000 HD
BRANCH 104 111
ATOM    111   O  IDS B   6      12.391  22.618  13.0670  0.00  0.00     0.000 O
ATOM    112   S  IDS B   6      13.758  23.451  13.0990  0.00  0.00     0.000 S
ATOM    113   O  IDS B   6      14.568  22.865  12.0420  0.00  0.00     0.000 OA
ATOM    114   O  IDS B   6      13.441  24.871  12.9120  0.00  0.00     0.000 OA
ATOM    115   O  IDS B   6      14.205  23.117  14.4340  0.00  0.00     0.000 OA
ENDBRANCH 104 111
BRANCH 107 116
ATOM    116   C  IDS B   6       9.132  19.214  12.5250  0.00  0.00     0.000 C
ATOM    117   O  IDS B   6       7.934  19.150  12.4110  0.00  0.00     0.000 OA
ATOM    118   O  IDS B   6       9.773  18.346  13.0950  0.00  0.00     0.000 OA
ENDBRANCH 107 116
BRANCH 103 119
ATOM    119  O4  SGN B   7      11.487  21.518   9.8190  0.00  0.00     0.000 O
BRANCH 119 123
ATOM    120  C1  SGN B   7      12.404  19.626   6.2040  0.00  0.00     0.000 C
ATOM    121  C2  SGN B   7      10.946  19.556   6.6960  0.00  0.00     0.000 C
ATOM    122  C3  SGN B   7      10.694  20.609   7.7830  0.00  0.00     0.000 C
ATOM    123  C4  SGN B   7      11.725  20.460   8.8900  0.00  0.00     0.000 C
ATOM    124  C5  SGN B   7      13.142  20.537   8.2980  0.00  0.00     0.000 C
ATOM    125  O5  SGN B   7      13.335  19.529   7.2800  0.00  0.00     0.000 O
ATOM    126   O  SGN B   7       9.362  20.450   8.2860  0.00  0.00     0.000 O
ATOM    128  HD  SGN B   7       9.953  20.240   7.6880  0.00  0.00     0.000 HD
BRANCH 121 130
ATOM    128   N  SGN B   7      10.530  18.408   5.8860  0.00  0.00     0.000 N
ATOM    130  HD  SGN B   7       9.820  18.313   6.3730  0.00  0.00     0.000 HD
ATOM    130   S  SGN B   7       9.306  18.491   4.8430  0.00  0.00     0.000 S
ATOM    131   O  SGN B   7       9.569  19.644   4.0520  0.00  0.00     0.000 OA
ATOM    132   O  SGN B   7       9.156  17.220   4.2300  0.00  0.00     0.000 OA
ATOM    133   O  SGN B   7       8.098  18.597   5.8340  0.00  0.00     0.000 OA
ENDBRANCH 121 130
BRANCH 124 134
ATOM    134   C  SGN B   7      14.232  20.285   9.2980  0.00  0.00     0.000 C
ATOM    135   O  SGN B   7      15.363  19.724   8.6100  0.00  0.00     0.000 O
ATOM    136   S  SGN B   7      16.671  19.530   9.4580  0.00  0.00     0.000 S
ATOM    137   O  SGN B   7      17.619  18.866   8.5950  0.00  0.00     0.000 OA
ATOM    138   O  SGN B   7      16.273  18.720  10.5870  0.00  0.00     0.000 OA
ATOM    139   O  SGN B   7      17.033  20.897   9.7940  0.00  0.00     0.000 OA
ENDBRANCH 124 134
BRANCH 120 140
ATOM    140  O4  IDS B   8      12.991  20.606   5.5080  0.00  0.00     0.000 O
BRANCH 140 144
ATOM    141  C1  IDS B   8      14.138  21.191   2.1460  0.00  0.00     0.000 C
ATOM    142  C2  IDS B   8      14.247  19.782   2.7940  0.00  0.00     0.000 C
ATOM    143  C3  IDS B   8      14.867  19.812   4.2030  0.00  0.00     0.000 C
ATOM    144  C4  IDS B   8      14.305  20.951   5.0520  0.00  0.00     0.000 C
ATOM    145  C5  IDS B   8      14.255  22.248   4.2300  0.00  0.00     0.000 C
ATOM    146  O5  IDS B   8      13.488  22.088   3.0390  0.00  0.00     0.000 O
BRANCH 142 147
ATOM    147   O  IDS B   8      12.890  19.189   2.9220  0.00  0.00     0.000 O
ATOM    148   S  IDS B   8      12.634  17.614   2.6310  0.00  0.00     0.000 S
ATOM    149   O  IDS B   8      13.778  17.112   1.9040  0.00  0.00     0.000 OA
ATOM    150   O  IDS B   8      12.484  16.998   3.9360  0.00  0.00     0.000 OA
ATOM    151   O  IDS B   8      11.423  17.565   1.8350  0.00  0.00     0.000 OA
ENDBRANCH 142 147
BRANCH 145 152
ATOM    152   C  IDS B   8      13.614  23.394   4.9870  0.00  0.00     0.000 C
ATOM    153   O  IDS B   8      12.595  23.915   4.5460  0.00  0.00     0.000 OA
ATOM    154   O  IDS B   8      14.105  23.772   6.0350  0.00  0.00     0.000 OA
ENDBRANCH 145 152
ENDBRANCH 140 144
ENDBRANCH 120 140
ENDBRANCH 119 123
ENDBRANCH 103 119
ENDBRANCH 102 106
ENDBRANCH 82 102
ENDBRANCH 81 85
ENDBRANCH 65 81
ENDBRANCH 64 68
ENDBRANCH 41 64
ENDBRANCH 40 44
ENDBRANCH 24 40
ENDBRANCH 23 27
ENDBRANCH 1 23
TORSDOF 31
ENDMDL
MODEL 58
REMARK VINA RESULT:      -6.8      8.864     18.420
ROOT
ATOM      1  C1  SGN B   1      22.461  18.982  26.7400  0.00  0.00     0.000 C
ATOM      2  C2  SGN B   1      23.411  17.773  26.7310  0.00  0.00     0.000 C
ATOM      3  C3  SGN B   1      23.876  17.438  28.1520  0.00  0.00     0.000 C
ATOM      4  C4  SGN B   1      24.516  18.661  28.7990  0.00  0.00     0.000 C
ATOM      5  C5  SGN B   1      23.577  19.856  28.6460  0.00  0.00     0.000 C
ATOM      6  O5  SGN B   1      23.257  20.041  27.2540  0.00  0.00     0.000 O
ATOM      7   O  SGN B   1      24.790  16.347  28.1340  0.00  0.00     0.000 O
ATOM      9  HD  SGN B   1      25.208  16.935  27.6560  0.00  0.00     0.000 HD
ATOM      9   O  SGN B   1      24.753  18.399  30.1700  0.00  0.00     0.000 O
ATOM     11  HD  SGN B   1      25.171  18.987  29.6910  0.00  0.00     0.000 HD
ENDROOT
BRANCH 2 13
ATOM     11   N  SGN B   1      23.488  17.398  25.3060  0.00  0.00     0.000 N
ATOM     13  HD  SGN B   1      22.720  17.515  25.6890  0.00  0.00     0.000 HD
ATOM     13   S  SGN B   1      22.325  16.563  24.5730  0.00  0.00     0.000 S
ATOM     14   O  SGN B   1      21.263  16.319  25.4700  0.00  0.00     0.000 OA
ATOM     15   O  SGN B   1      22.053  17.176  23.3170  0.00  0.00     0.000 OA
ATOM     16   O  SGN B   1      23.133  15.260  24.2840  0.00  0.00     0.000 OA
ENDBRANCH 2 13
BRANCH 5 17
ATOM     17   C  SGN B   1      24.150  21.156  29.1530  0.00  0.00     0.000 C
ATOM     18   O  SGN B   1      23.413  21.631  30.2980  0.00  0.00     0.000 O
ATOM     19   S  SGN B   1      23.038  23.186  30.2950  0.00  0.00     0.000 S
ATOM     20   O  SGN B   1      22.528  23.451  31.6230  0.00  0.00     0.000 OA
ATOM     21   O  SGN B   1      24.289  23.850  30.0120  0.00  0.00     0.000 OA
ATOM     22   O  SGN B   1      22.046  23.332  29.2520  0.00  0.00     0.000 OA
ENDBRANCH 5 17
BRANCH 1 23
ATOM     23  O4  IDS B   2      21.134  19.279  26.8470  0.00  0.00     0.000 O
BRANCH 23 27
ATOM     24  C1  IDS B   2      18.008  19.692  24.1470  0.00  0.00     0.000 C
ATOM     25  C2  IDS B   2      19.280  20.507  23.8250  0.00  0.00     0.000 C
ATOM     26  C3  IDS B   2      20.450  20.059  24.6960  0.00  0.00     0.000 C
ATOM     27  C4  IDS B   2      20.148  20.101  26.1880  0.00  0.00     0.000 C
ATOM     28  C5  IDS B   2      18.688  19.673  26.4420  0.00  0.00     0.000 C
ATOM     29  O5  IDS B   2      18.181  18.925  25.3460  0.00  0.00     0.000 O
ATOM     30   O  IDS B   2      21.563  20.913  24.4590  0.00  0.00     0.000 O
ATOM     32  HD  IDS B   2      21.506  21.672  24.8730  0.00  0.00     0.000 HD
BRANCH 25 32
ATOM     32   O  IDS B   2      19.695  20.363  22.4080  0.00  0.00     0.000 O
ATOM     33   S  IDS B   2      19.727  21.648  21.3740  0.00  0.00     0.000 S
ATOM     34   O  IDS B   2      19.957  21.096  20.0480  0.00  0.00     0.000 OA
ATOM     35   O  IDS B   2      18.457  22.357  21.4420  0.00  0.00     0.000 OA
ATOM     36   O  IDS B   2      20.838  22.466  21.8030  0.00  0.00     0.000 OA
ENDBRANCH 25 32
BRANCH 28 37
ATOM     37   C  IDS B   2      18.379  18.901  27.7410  0.00  0.00     0.000 C
ATOM     38   O  IDS B   2      17.608  17.986  27.5690  0.00  0.00     0.000 OA
ATOM     39   O  IDS B   2      18.885  19.095  28.8730  0.00  0.00     0.000 OA
ENDBRANCH 28 37
BRANCH 24 40
ATOM     40  O4  SUS B   3      16.846  19.985  23.5280  0.00  0.00     0.000 O
BRANCH 40 44
ATOM     41  C1  SUS B   3      13.719  17.484  22.2970  0.00  0.00     0.000 C
ATOM     42  C2  SUS B   3      13.960  17.617  23.8140  0.00  0.00     0.000 C
ATOM     43  C3  SUS B   3      14.768  18.884  24.0860  0.00  0.00     0.000 C
ATOM     44  C4  SUS B   3      16.044  18.841  23.2590  0.00  0.00     0.000 C
ATOM     45  C5  SUS B   3      15.674  18.804  21.7900  0.00  0.00     0.000 C
ATOM     46  O5  SUS B   3      14.931  17.593  21.5430  0.00  0.00     0.000 O
BRANCH 42 49
ATOM     47   N  SUS B   3      12.641  17.509  24.4600  0.00  0.00     0.000 N
ATOM     49  HD  SUS B   3      12.397  18.176  24.9550  0.00  0.00     0.000 HD
ATOM     49   S  SUS B   3      12.483  16.167  25.3210  0.00  0.00     0.000 S
ATOM     50   O  SUS B   3      13.496  16.102  26.2990  0.00  0.00     0.000 OA
ATOM     51   O  SUS B   3      11.122  16.529  25.9690  0.00  0.00     0.000 OA
ATOM     52   O  SUS B   3      12.344  15.068  24.4510  0.00  0.00     0.000 OA
ENDBRANCH 42 49
BRANCH 43 53
ATOM     53   O  SUS B   3      15.103  18.910  25.5230  0.00  0.00     0.000 O
ATOM     54   S  SUS B   3      14.363  20.053  26.4440  0.00  0.00     0.000 S
ATOM     55   O  SUS B   3      12.963  19.672  26.5700  0.00  0.00     0.000 OA
ATOM     56   O  SUS B   3      15.093  20.021  27.6980  0.00  0.00     0.000 OA
ATOM     57   O  SUS B   3      14.505  21.322  25.7240  0.00  0.00     0.000 OA
ENDBRANCH 43 53
BRANCH 45 58
ATOM     58   C  SUS B   3      16.895  18.860  20.8970  0.00  0.00     0.000 C
ATOM     59   S  SUS B   3      18.720  17.389  19.8540  0.00  0.00     0.000 S
ATOM     60   O  SUS B   3      17.329  17.523  20.5990  0.00  0.00     0.000 O
ATOM     61   O  SUS B   3      19.722  17.590  20.8830  0.00  0.00     0.000 OA
ATOM     62   O  SUS B   3      18.652  16.025  19.4030  0.00  0.00     0.000 OA
ATOM     63   O  SUS B   3      18.697  18.370  18.8270  0.00  0.00     0.000 OA
ENDBRANCH 45 58
BRANCH 41 64
ATOM     64  O4  IDS B   4      12.694  18.268  21.8290  0.00  0.00     0.000 O
BRANCH 64 68
ATOM     65  C1  IDS B   4       9.966  19.325  19.6570  0.00  0.00     0.000 C
ATOM     66  C2  IDS B   4      10.033  17.879  20.1650  0.00  0.00     0.000 C
ATOM     67  C3  IDS B   4      11.403  17.234  20.0420  0.00  0.00     0.000 C
ATOM     68  C4  IDS B   4      12.535  18.180  20.3950  0.00  0.00     0.000 C
ATOM     69  C5  IDS B   4      12.252  19.533  19.7280  0.00  0.00     0.000 C
ATOM     70  O5  IDS B   4      11.026  20.062  20.2380  0.00  0.00     0.000 O
ATOM     71   O  IDS B   4      11.544  16.799  18.7050  0.00  0.00     0.000 O
ATOM     73  HD  IDS B   4      11.108  17.064  19.4050  0.00  0.00     0.000 HD
BRANCH 66 73
ATOM     73   O  IDS B   4       9.722  17.867  21.6010  0.00  0.00     0.000 O
ATOM     74   S  IDS B   4       9.042  16.535  22.2180  0.00  0.00     0.000 S
ATOM     75   O  IDS B   4       7.834  16.301  21.4570  0.00  0.00     0.000 OA
ATOM     76   O  IDS B   4       8.808  16.929  23.5850  0.00  0.00     0.000 OA
ATOM     77   O  IDS B   4      10.027  15.492  22.0610  0.00  0.00     0.000 OA
ENDBRANCH 66 73
BRANCH 69 78
ATOM     78   C  IDS B   4      13.403  20.526  19.8040  0.00  0.00     0.000 C
ATOM     79   O  IDS B   4      13.432  21.326  20.7380  0.00  0.00     0.000 OA
ATOM     80   O  IDS B   4      14.332  20.426  18.9820  0.00  0.00     0.000 OA
ENDBRANCH 69 78
BRANCH 65 81
ATOM     81  O4  SGN B   5       9.893  19.324  18.2970  0.00  0.00     0.000 O
BRANCH 81 85
ATOM     82  C1  SGN B   5       8.981  21.914  15.1180  0.00  0.00     0.000 C
ATOM     83  C2  SGN B   5       9.453  22.558  16.4300  0.00  0.00     0.000 C
ATOM     84  C3  SGN B   5      10.169  21.507  17.2900  0.00  0.00     0.000 C
ATOM     85  C4  SGN B   5       9.244  20.322  17.5060  0.00  0.00     0.000 C
ATOM     86  C5  SGN B   5       8.865  19.756  16.1400  0.00  0.00     0.000 C
ATOM     87  O5  SGN B   5       8.182  20.778  15.3890  0.00  0.00     0.000 O
ATOM     88   O  SGN B   5      10.555  22.078  18.5220  0.00  0.00     0.000 O
ATOM     90  HD  SGN B   5      11.080  21.934  17.8480  0.00  0.00     0.000 HD
BRANCH 83 92
ATOM     90   N  SGN B   5       8.891  23.777  15.8160  0.00  0.00     0.000 N
ATOM     92  HD  SGN B   5       8.026  23.774  15.8560  0.00  0.00     0.000 HD
ATOM     92   S  SGN B   5       9.579  25.178  16.1600  0.00  0.00     0.000 S
ATOM     93   O  SGN B   5       8.810  26.139  15.4290  0.00  0.00     0.000 OA
ATOM     94   O  SGN B   5       9.635  25.241  17.5810  0.00  0.00     0.000 OA
ATOM     95   O  SGN B   5      11.000  25.042  15.6580  0.00  0.00     0.000 OA
ENDBRANCH 83 92
BRANCH 86 96
ATOM     96   C  SGN B   5       7.947  18.552  16.2010  0.00  0.00     0.000 C
ATOM     97   O  SGN B   5       8.434  17.507  15.3560  0.00  0.00     0.000 O
ATOM     98   S  SGN B   5       8.565  16.057  16.0290  0.00  0.00     0.000 S
ATOM     99   O  SGN B   5       8.871  15.209  14.9020  0.00  0.00     0.000 OA
ATOM    100   O  SGN B   5       9.588  16.133  17.0090  0.00  0.00     0.000 OA
ATOM    101   O  SGN B   5       7.276  15.809  16.5900  0.00  0.00     0.000 OA
ENDBRANCH 86 96
BRANCH 82 102
ATOM    102  O4  IDS B   6      10.016  21.581  14.2960  0.00  0.00     0.000 O
BRANCH 102 106
ATOM    103  C1  IDS B   6      12.005  21.614  11.2460  0.00  0.00     0.000 C
ATOM    104  C2  IDS B   6      11.602  22.927  11.9360  0.00  0.00     0.000 C
ATOM    105  C3  IDS B   6      10.142  23.021  12.3360  0.00  0.00     0.000 C
ATOM    106  C4  IDS B   6       9.607  21.721  12.9110  0.00  0.00     0.000 C
ATOM    107  C5  IDS B   6      10.106  20.540  12.0740  0.00  0.00     0.000 C
ATOM    108  O5  IDS B   6      11.532  20.509  11.9920  0.00  0.00     0.000 O
ATOM    109   O  IDS B   6       9.396  23.411  11.1950  0.00  0.00     0.000 O
ATOM    111  HD  IDS B   6       9.894  23.173  10.5280  0.00  0.00     0.000 HD
BRANCH 104 111
ATOM    111   O  IDS B   6      12.358  23.061  13.1910  0.00  0.00     0.000 O
ATOM    112   S  IDS B   6      13.560  24.118  13.2360  0.00  0.00     0.000 S
ATOM    113   O  IDS B   6      14.463  23.691  12.1790  0.00  0.00     0.000 OA
ATOM    114   O  IDS B   6      13.002  25.464  13.0600  0.00  0.00     0.000 OA
ATOM    115   O  IDS B   6      14.052  23.854  14.5710  0.00  0.00     0.000 OA
ENDBRANCH 104 111
BRANCH 107 116
ATOM    116   C  IDS B   6       9.594  19.240  12.6800  0.00  0.00     0.000 C
ATOM    117   O  IDS B   6      10.406  18.546  13.2380  0.00  0.00     0.000 OA
ATOM    118   O  IDS B   6       8.420  18.918  12.5930  0.00  0.00     0.000 OA
ENDBRANCH 107 116
BRANCH 103 119
ATOM    119  O4  SGN B   7      11.636  21.804   9.9540  0.00  0.00     0.000 O
BRANCH 119 123
ATOM    120  C1  SGN B   7      12.040  19.408   6.5500  0.00  0.00     0.000 C
ATOM    121  C2  SGN B   7      10.613  19.711   7.0440  0.00  0.00     0.000 C
ATOM    122  C3  SGN B   7      10.621  20.895   8.0190  0.00  0.00     0.000 C
ATOM    123  C4  SGN B   7      11.617  20.633   9.1370  0.00  0.00     0.000 C
ATOM    124  C5  SGN B   7      13.003  20.336   8.5420  0.00  0.00     0.000 C
ATOM    125  O5  SGN B   7      12.949  19.215   7.6330  0.00  0.00     0.000 O
ATOM    126   O  SGN B   7       9.298  21.084   8.5330  0.00  0.00     0.000 O
ATOM    128  HD  SGN B   7       9.815  20.691   7.9610  0.00  0.00     0.000 HD
BRANCH 121 130
ATOM    128   N  SGN B   7       9.942  18.609   6.3500  0.00  0.00     0.000 N
ATOM    130  HD  SGN B   7       9.239  18.715   6.8450  0.00  0.00     0.000 HD
ATOM    130   S  SGN B   7       8.741  18.855   5.3060  0.00  0.00     0.000 S
ATOM    131   O  SGN B   7       9.227  19.845   4.4060  0.00  0.00     0.000 OA
ATOM    132   O  SGN B   7       8.308  17.595   4.8190  0.00  0.00     0.000 OA
ATOM    133   O  SGN B   7       7.607  19.313   6.2840  0.00  0.00     0.000 OA
ENDBRANCH 121 130
BRANCH 124 134
ATOM    134   C  SGN B   7      14.032  19.951   9.5640  0.00  0.00     0.000 C
ATOM    135   O  SGN B   7      15.333  20.283   9.0520  0.00  0.00     0.000 O
ATOM    136   S  SGN B   7      16.542  20.097  10.0380  0.00  0.00     0.000 S
ATOM    137   O  SGN B   7      17.734  20.388   9.2780  0.00  0.00     0.000 OA
ATOM    138   O  SGN B   7      16.470  18.720  10.4700  0.00  0.00     0.000 OA
ATOM    139   O  SGN B   7      16.250  21.072  11.0770  0.00  0.00     0.000 OA
ENDBRANCH 124 134
BRANCH 120 140
ATOM    140  O4  IDS B   8      12.814  20.160   5.7590  0.00  0.00     0.000 O
BRANCH 140 144
ATOM    141  C1  IDS B   8      16.075  20.724   4.3430  0.00  0.00     0.000 C
ATOM    142  C2  IDS B   8      15.089  21.904   4.5740  0.00  0.00     0.000 C
ATOM    143  C3  IDS B   8      13.674  21.623   4.0360  0.00  0.00     0.000 C
ATOM    144  C4  IDS B   8      13.200  20.212   4.3800  0.00  0.00     0.000 C
ATOM    145  C5  IDS B   8      14.319  19.196   4.1070  0.00  0.00     0.000 C
ATOM    146  O5  IDS B   8      15.507  19.514   4.8280  0.00  0.00     0.000 O
BRANCH 142 147
ATOM    147   O  IDS B   8      14.961  22.164   6.0330  0.00  0.00     0.000 O
ATOM    148   S  IDS B   8      15.406  23.588   6.6700  0.00  0.00     0.000 S
ATOM    149   O  IDS B   8      16.234  24.264   5.6970  0.00  0.00     0.000 OA
ATOM    150   O  IDS B   8      14.167  24.294   6.9410  0.00  0.00     0.000 OA
ATOM    151   O  IDS B   8      16.145  23.254   7.8720  0.00  0.00     0.000 OA
ENDBRANCH 142 147
BRANCH 145 152
ATOM    152   C  IDS B   8      13.943  17.788   4.5230  0.00  0.00     0.000 C
ATOM    153   O  IDS B   8      13.001  17.227   3.9750  0.00  0.00     0.000 OA
ATOM    154   O  IDS B   8      14.594  17.220   5.3820  0.00  0.00     0.000 OA
ENDBRANCH 145 152
ENDBRANCH 140 144
ENDBRANCH 120 140
ENDBRANCH 119 123
ENDBRANCH 103 119
ENDBRANCH 102 106
ENDBRANCH 82 102
ENDBRANCH 81 85
ENDBRANCH 65 81
ENDBRANCH 64 68
ENDBRANCH 41 64
ENDBRANCH 40 44
ENDBRANCH 24 40
ENDBRANCH 23 27
ENDBRANCH 1 23
TORSDOF 31
ENDMDL
MODEL 59
REMARK VINA RESULT:      -6.8      4.092      6.576
ROOT
ATOM      1  C1  SGN B   1      26.668  13.281  15.5270  0.00  0.00     0.000 C
ATOM      2  C2  SGN B   1      26.658  11.754  15.3490  0.00  0.00     0.000 C
ATOM      3  C3  SGN B   1      28.075  11.184  15.4720  0.00  0.00     0.000 C
ATOM      4  C4  SGN B   1      29.005  11.868  14.4750  0.00  0.00     0.000 C
ATOM      5  C5  SGN B   1      28.857  13.382  14.6130  0.00  0.00     0.000 C
ATOM      6  O5  SGN B   1      27.473  13.747  14.4520  0.00  0.00     0.000 O
ATOM      7   O  SGN B   1      28.068   9.777  15.2620  0.00  0.00     0.000 O
ATOM      9  HD  SGN B   1      27.769  10.069  14.5040  0.00  0.00     0.000 HD
ATOM      9   O  SGN B   1      30.342  11.482  14.7380  0.00  0.00     0.000 O
ATOM     11  HD  SGN B   1      30.043  11.775  13.9800  0.00  0.00     0.000 HD
ENDROOT
BRANCH 2 13
ATOM     11   N  SGN B   1      25.234  11.430  15.1370  0.00  0.00     0.000 N
ATOM     13  HD  SGN B   1      25.478  11.927  15.8030  0.00  0.00     0.000 HD
ATOM     13   S  SGN B   1      24.179  11.358  16.3500  0.00  0.00     0.000 S
ATOM     14   O  SGN B   1      24.813  11.692  17.5650  0.00  0.00     0.000 OA
ATOM     15   O  SGN B   1      22.998  12.052  15.9610  0.00  0.00     0.000 OA
ATOM     16   O  SGN B   1      23.861   9.832  16.2770  0.00  0.00     0.000 OA
ENDBRANCH 2 13
BRANCH 5 17
ATOM     17   C  SGN B   1      29.650  14.171  13.6000  0.00  0.00     0.000 C
ATOM     18   O  SGN B   1      28.831  15.181  12.9790  0.00  0.00     0.000 O
ATOM     19   S  SGN B   1      28.955  15.305  11.3900  0.00  0.00     0.000 S
ATOM     20   O  SGN B   1      28.235  16.515  11.0510  0.00  0.00     0.000 OA
ATOM     21   O  SGN B   1      30.377  15.392  11.1520  0.00  0.00     0.000 OA
ATOM     22   O  SGN B   1      28.344  14.102  10.8690  0.00  0.00     0.000 OA
ENDBRANCH 5 17
BRANCH 1 23
ATOM     23  O4  IDS B   2      26.566  14.229  16.5020  0.00  0.00     0.000 O
BRANCH 23 27
ATOM     24  C1  IDS B   2      25.222  17.144  19.1340  0.00  0.00     0.000 C
ATOM     25  C2  IDS B   2      24.120  16.351  18.3980  0.00  0.00     0.000 C
ATOM     26  C3  IDS B   2      24.704  15.127  17.6970  0.00  0.00     0.000 C
ATOM     27  C4  IDS B   2      25.851  15.457  16.7530  0.00  0.00     0.000 C
ATOM     28  C5  IDS B   2      26.715  16.587  17.3480  0.00  0.00     0.000 C
ATOM     29  O5  IDS B   2      26.526  16.685  18.7520  0.00  0.00     0.000 O
ATOM     30   O  IDS B   2      23.685  14.495  16.9310  0.00  0.00     0.000 O
ATOM     32  HD  IDS B   2      23.530  14.891  16.1760  0.00  0.00     0.000 HD
BRANCH 25 32
ATOM     32   O  IDS B   2      23.059  15.876  19.3200  0.00  0.00     0.000 O
ATOM     33   S  IDS B   2      21.466  16.226  19.0700  0.00  0.00     0.000 S
ATOM     34   O  IDS B   2      20.765  15.800  20.2710  0.00  0.00     0.000 OA
ATOM     35   O  IDS B   2      21.314  17.657  18.8440  0.00  0.00     0.000 OA
ATOM     36   O  IDS B   2      21.070  15.442  17.9230  0.00  0.00     0.000 OA
ENDBRANCH 25 32
BRANCH 28 37
ATOM     37   C  IDS B   2      28.231  16.561  17.0640  0.00  0.00     0.000 C
ATOM     38   O  IDS B   2      28.889  16.344  18.0550  0.00  0.00     0.000 OA
ATOM     39   O  IDS B   2      28.792  16.674  15.9470  0.00  0.00     0.000 OA
ENDBRANCH 28 37
BRANCH 24 40
ATOM     40  O4  SUS B   3      24.916  18.300  19.7600  0.00  0.00     0.000 O
BRANCH 40 44
ATOM     41  C1  SUS B   3      26.492  19.823  23.3290  0.00  0.00     0.000 C
ATOM     42  C2  SUS B   3      27.060  20.385  22.0110  0.00  0.00     0.000 C
ATOM     43  C3  SUS B   3      26.078  20.100  20.8770  0.00  0.00     0.000 C
ATOM     44  C4  SUS B   3      25.791  18.607  20.8390  0.00  0.00     0.000 C
ATOM     45  C5  SUS B   3      25.153  18.197  22.1510  0.00  0.00     0.000 C
ATOM     46  O5  SUS B   3      26.099  18.451  23.2100  0.00  0.00     0.000 O
BRANCH 42 49
ATOM     47   N  SUS B   3      28.130  21.094  21.2870  0.00  0.00     0.000 N
ATOM     49  HD  SUS B   3      28.685  20.603  20.8390  0.00  0.00     0.000 HD
ATOM     49   S  SUS B   3      28.979  22.065  22.2360  0.00  0.00     0.000 S
ATOM     50   O  SUS B   3      29.536  21.329  23.3010  0.00  0.00     0.000 OA
ATOM     51   O  SUS B   3      30.068  22.427  21.1940  0.00  0.00     0.000 OA
ATOM     52   O  SUS B   3      28.205  23.197  22.5600  0.00  0.00     0.000 OA
ENDBRANCH 42 49
BRANCH 43 53
ATOM     53   O  SUS B   3      26.709  20.521  19.6110  0.00  0.00     0.000 O
ATOM     54   S  SUS B   3      26.008  21.769  18.8030  0.00  0.00     0.000 S
ATOM     55   O  SUS B   3      26.262  22.982  19.5690  0.00  0.00     0.000 OA
ATOM     56   O  SUS B   3      26.653  21.753  17.5020  0.00  0.00     0.000 OA
ATOM     57   O  SUS B   3      24.574  21.471  18.7420  0.00  0.00     0.000 OA
ENDBRANCH 43 53
BRANCH 45 58
ATOM     58   C  SUS B   3      24.746  16.740  22.1520  0.00  0.00     0.000 C
ATOM     59   S  SUS B   3      23.420  15.002  23.4960  0.00  0.00     0.000 S
ATOM     60   O  SUS B   3      23.795  16.513  23.2060  0.00  0.00     0.000 O
ATOM     61   O  SUS B   3      24.537  14.473  24.2560  0.00  0.00     0.000 OA
ATOM     62   O  SUS B   3      22.234  15.168  24.2930  0.00  0.00     0.000 OA
ATOM     63   O  SUS B   3      23.217  14.409  22.2210  0.00  0.00     0.000 OA
ENDBRANCH 45 58
BRANCH 41 64
ATOM     64  O4  IDS B   4      25.546  20.630  23.9120  0.00  0.00     0.000 O
BRANCH 64 68
ATOM     65  C1  IDS B   4      23.722  22.086  26.7100  0.00  0.00     0.000 C
ATOM     66  C2  IDS B   4      25.222  21.787  26.8370  0.00  0.00     0.000 C
ATOM     67  C3  IDS B   4      25.632  20.413  26.3360  0.00  0.00     0.000 C
ATOM     68  C4  IDS B   4      24.918  20.014  25.0580  0.00  0.00     0.000 C
ATOM     69  C5  IDS B   4      23.434  20.373  25.2090  0.00  0.00     0.000 C
ATOM     70  O5  IDS B   4      23.308  21.785  25.3900  0.00  0.00     0.000 O
ATOM     71   O  IDS B   4      25.333  19.487  27.3600  0.00  0.00     0.000 O
ATOM     73  HD  IDS B   4      25.480  20.273  27.0270  0.00  0.00     0.000 HD
BRANCH 66 73
ATOM     73   O  IDS B   4      25.967  22.745  26.0090  0.00  0.00     0.000 O
ATOM     74   S  IDS B   4      26.814  23.900  26.7610  0.00  0.00     0.000 S
ATOM     75   O  IDS B   4      25.877  24.612  27.6030  0.00  0.00     0.000 OA
ATOM     76   O  IDS B   4      27.310  24.674  25.6500  0.00  0.00     0.000 OA
ATOM     77   O  IDS B   4      27.837  23.205  27.5050  0.00  0.00     0.000 OA
ENDBRANCH 66 73
BRANCH 69 78
ATOM     78   C  IDS B   4      22.541  19.836  24.0990  0.00  0.00     0.000 C
ATOM     79   O  IDS B   4      22.658  20.305  22.9670  0.00  0.00     0.000 OA
ATOM     80   O  IDS B   4      21.797  18.869  24.3470  0.00  0.00     0.000 OA
ENDBRANCH 69 78
BRANCH 65 81
ATOM     81  O4  SGN B   5      23.050  21.468  27.7210  0.00  0.00     0.000 O
BRANCH 81 85
ATOM     82  C1  SGN B   5      19.668  21.728  30.1960  0.00  0.00     0.000 C
ATOM     83  C2  SGN B   5      19.421  21.460  28.7040  0.00  0.00     0.000 C
ATOM     84  C3  SGN B   5      20.712  20.941  28.0560  0.00  0.00     0.000 C
ATOM     85  C4  SGN B   5      21.833  21.934  28.3070  0.00  0.00     0.000 C
ATOM     86  C5  SGN B   5      21.998  22.099  29.8150  0.00  0.00     0.000 C
ATOM     87  O5  SGN B   5      20.765  22.605  30.3630  0.00  0.00     0.000 O
ATOM     88   O  SGN B   5      20.510  20.747  26.6730  0.00  0.00     0.000 O
ATOM     90  HD  SGN B   5      20.518  20.121  27.2720  0.00  0.00     0.000 HD
BRANCH 83 92
ATOM     90   N  SGN B   5      18.158  20.778  29.0490  0.00  0.00     0.000 N
ATOM     92  HD  SGN B   5      18.061  20.720  29.9070  0.00  0.00     0.000 HD
ATOM     92   S  SGN B   5      16.839  21.189  28.2450  0.00  0.00     0.000 S
ATOM     93   O  SGN B   5      15.810  20.369  28.8100  0.00  0.00     0.000 OA
ATOM     94   O  SGN B   5      16.755  22.606  28.3400  0.00  0.00     0.000 OA
ATOM     95   O  SGN B   5      17.147  20.851  26.8030  0.00  0.00     0.000 OA
ENDBRANCH 83 92
BRANCH 86 96
ATOM     96   C  SGN B   5      23.098  23.060  30.2180  0.00  0.00     0.000 C
ATOM     97   O  SGN B   5      23.861  22.524  31.3020  0.00  0.00     0.000 O
ATOM     98   S  SGN B   5      25.453  22.516  31.1080  0.00  0.00     0.000 S
ATOM     99   O  SGN B   5      25.930  22.122  32.4120  0.00  0.00     0.000 OA
ATOM    100   O  SGN B   5      25.752  21.600  30.0670  0.00  0.00     0.000 OA
ATOM    101   O  SGN B   5      25.776  23.865  30.7720  0.00  0.00     0.000 OA
ENDBRANCH 86 96
BRANCH 82 102
ATOM    102  O4  IDS B   6      19.862  20.583  30.9100  0.00  0.00     0.000 O
BRANCH 102 106
ATOM    103  C1  IDS B   6      18.893  18.198  33.4850  0.00  0.00     0.000 C
ATOM    104  C2  IDS B   6      17.830  18.928  32.6490  0.00  0.00     0.000 C
ATOM    105  C3  IDS B   6      18.035  20.424  32.5120  0.00  0.00     0.000 C
ATOM    106  C4  IDS B   6      19.491  20.799  32.2950  0.00  0.00     0.000 C
ATOM    107  C5  IDS B   6      20.381  19.978  33.2320  0.00  0.00     0.000 C
ATOM    108  O5  IDS B   6      20.188  18.573  33.0560  0.00  0.00     0.000 O
ATOM    109   O  IDS B   6      17.523  21.049  33.6770  0.00  0.00     0.000 O
ATOM    111  HD  IDS B   6      17.539  20.422  34.2740  0.00  0.00     0.000 HD
BRANCH 104 111
ATOM    111   O  IDS B   6      17.858  18.405  31.2750  0.00  0.00     0.000 O
ATOM    112   S  IDS B   6      16.724  17.359  30.8440  0.00  0.00     0.000 S
ATOM    113   O  IDS B   6      16.871  16.254  31.7780  0.00  0.00     0.000 OA
ATOM    114   O  IDS B   6      15.424  18.037  30.8950  0.00  0.00     0.000 OA
ATOM    115   O  IDS B   6      17.181  17.060  29.5030  0.00  0.00     0.000 OA
ENDBRANCH 104 111
BRANCH 107 116
ATOM    116   C  IDS B   6      21.841  20.334  32.9810  0.00  0.00     0.000 C
ATOM    117   O  IDS B   6      22.261  21.319  33.5330  0.00  0.00     0.000 OA
ATOM    118   O  IDS B   6      22.543  19.656  32.2480  0.00  0.00     0.000 OA
ENDBRANCH 107 116
BRANCH 103 119
ATOM    119  O4  SGN B   7      18.487  18.398  34.7650  0.00  0.00     0.000 O
BRANCH 119 123
ATOM    120  C1  SGN B   7      19.480  16.805  38.5030  0.00  0.00     0.000 C
ATOM    121  C2  SGN B   7      20.256  18.048  38.0280  0.00  0.00     0.000 C
ATOM    122  C3  SGN B   7      19.520  18.731  36.8680  0.00  0.00     0.000 C
ATOM    123  C4  SGN B   7      19.245  17.720  35.7680  0.00  0.00     0.000 C
ATOM    124  C5  SGN B   7      18.476  16.519  36.3420  0.00  0.00     0.000 C
ATOM    125  O5  SGN B   7      19.205  15.907  37.4290  0.00  0.00     0.000 O
ATOM    126   O  SGN B   7      20.317  19.821  36.3880  0.00  0.00     0.000 O
ATOM    128  HD  SGN B   7      20.185  19.217  36.9950  0.00  0.00     0.000 HD
BRANCH 121 130
ATOM    128   N  SGN B   7      21.043  17.848  39.2480  0.00  0.00     0.000 N
ATOM    130  HD  SGN B   7      21.777  17.928  38.7960  0.00  0.00     0.000 HD
ATOM    130   S  SGN B   7      21.835  19.052  39.9660  0.00  0.00     0.000 S
ATOM    131   O  SGN B   7      20.878  20.097  40.1030  0.00  0.00     0.000 OA
ATOM    132   O  SGN B   7      22.497  18.532  41.1080  0.00  0.00     0.000 OA
ATOM    133   O  SGN B   7      22.977  19.299  38.9240  0.00  0.00     0.000 OA
ENDBRANCH 121 130
BRANCH 124 134
ATOM    134   C  SGN B   7      18.257  15.410  35.3550  0.00  0.00     0.000 C
ATOM    135   O  SGN B   7      19.128  14.318  35.6930  0.00  0.00     0.000 O
ATOM    136   S  SGN B   7      18.943  12.994  34.8690  0.00  0.00     0.000 S
ATOM    137   O  SGN B   7      19.981  12.093  35.3080  0.00  0.00     0.000 OA
ATOM    138   O  SGN B   7      19.085  13.387  33.4850  0.00  0.00     0.000 OA
ATOM    139   O  SGN B   7      17.600  12.578  35.2420  0.00  0.00     0.000 OA
ENDBRANCH 124 134
BRANCH 120 140
ATOM    140  O4  IDS B   8      18.294  16.762  39.1200  0.00  0.00     0.000 O
BRANCH 140 144
ATOM    141  C1  IDS B   8      15.001  18.043  39.8120  0.00  0.00     0.000 C
ATOM    142  C2  IDS B   8      16.191  19.005  39.5320  0.00  0.00     0.000 C
ATOM    143  C3  IDS B   8      17.449  18.664  40.3520  0.00  0.00     0.000 C
ATOM    144  C4  IDS B   8      17.729  17.162  40.3750  0.00  0.00     0.000 C
ATOM    145  C5  IDS B   8      16.430  16.385  40.6400  0.00  0.00     0.000 C
ATOM    146  O5  IDS B   8      15.426  16.692  39.6760  0.00  0.00     0.000 O
BRANCH 142 147
ATOM    147   O  IDS B   8      16.567  18.923  38.0960  0.00  0.00     0.000 O
ATOM    148   S  IDS B   8      16.118  20.076  37.0470  0.00  0.00     0.000 S
ATOM    149   O  IDS B   8      15.061  20.843  37.6660  0.00  0.00     0.000 OA
ATOM    150   O  IDS B   8      17.313  20.862  36.8020  0.00  0.00     0.000 OA
ATOM    151   O  IDS B   8      15.654  19.364  35.8720  0.00  0.00     0.000 OA
ENDBRANCH 142 147
BRANCH 145 152
ATOM    152   C  IDS B   8      16.625  14.884  40.5760  0.00  0.00     0.000 C
ATOM    153   O  IDS B   8      17.278  14.321  41.4480  0.00  0.00     0.000 OA
ATOM    154   O  IDS B   8      16.114  14.249  39.6710  0.00  0.00     0.000 OA
ENDBRANCH 145 152
ENDBRANCH 140 144
ENDBRANCH 120 140
ENDBRANCH 119 123
ENDBRANCH 103 119
ENDBRANCH 102 106
ENDBRANCH 82 102
ENDBRANCH 81 85
ENDBRANCH 65 81
ENDBRANCH 64 68
ENDBRANCH 41 64
ENDBRANCH 40 44
ENDBRANCH 24 40
ENDBRANCH 23 27
ENDBRANCH 1 23
TORSDOF 31
ENDMDL
MODEL 60
REMARK VINA RESULT:      -6.8      9.613     13.422
ROOT
ATOM      1  C1  SGN B   1      35.169  19.004  24.7760  0.00  0.00     0.000 C
ATOM      2  C2  SGN B   1      35.987  17.816  24.2410  0.00  0.00     0.000 C
ATOM      3  C3  SGN B   1      37.363  18.282  23.7510  0.00  0.00     0.000 C
ATOM      4  C4  SGN B   1      37.205  19.382  22.7060  0.00  0.00     0.000 C
ATOM      5  C5  SGN B   1      36.268  20.457  23.2520  0.00  0.00     0.000 C
ATOM      6  O5  SGN B   1      35.020  19.854  23.6470  0.00  0.00     0.000 O
ATOM      7   O  SGN B   1      38.099  17.188  23.2170  0.00  0.00     0.000 O
ATOM      9  HD  SGN B   1      37.410  17.208  22.6940  0.00  0.00     0.000 HD
ATOM      9   O  SGN B   1      38.473  19.940  22.4160  0.00  0.00     0.000 O
ATOM     11  HD  SGN B   1      37.783  19.960  21.8930  0.00  0.00     0.000 HD
ENDROOT
BRANCH 2 13
ATOM     11   N  SGN B   1      34.910  16.852  24.5310  0.00  0.00     0.000 N
ATOM     13  HD  SGN B   1      35.346  17.230  25.1760  0.00  0.00     0.000 HD
ATOM     13   S  SGN B   1      34.896  15.953  25.8660  0.00  0.00     0.000 S
ATOM     14   O  SGN B   1      36.002  16.276  26.6790  0.00  0.00     0.000 OA
ATOM     15   O  SGN B   1      33.584  15.990  26.4200  0.00  0.00     0.000 OA
ATOM     16   O  SGN B   1      35.073  14.556  25.1950  0.00  0.00     0.000 OA
ENDBRANCH 2 13
BRANCH 5 17
ATOM     17   C  SGN B   1      35.945  21.550  22.2630  0.00  0.00     0.000 C
ATOM     18   O  SGN B   1      35.037  22.511  22.8360  0.00  0.00     0.000 O
ATOM     19   S  SGN B   1      33.816  22.962  21.9070  0.00  0.00     0.000 S
ATOM     20   O  SGN B   1      33.208  24.077  22.6020  0.00  0.00     0.000 OA
ATOM     21   O  SGN B   1      34.440  23.331  20.6580  0.00  0.00     0.000 OA
ATOM     22   O  SGN B   1      32.960  21.799  21.8170  0.00  0.00     0.000 OA
ENDBRANCH 5 17
BRANCH 1 23
ATOM     23  O4  IDS B   2      34.939  19.689  25.9320  0.00  0.00     0.000 O
BRANCH 23 27
ATOM     24  C1  IDS B   2      31.254  19.259  27.7960  0.00  0.00     0.000 C
ATOM     25  C2  IDS B   2      31.278  20.205  26.5750  0.00  0.00     0.000 C
ATOM     26  C3  IDS B   2      32.584  20.061  25.7970  0.00  0.00     0.000 C
ATOM     27  C4  IDS B   2      33.826  20.257  26.6550  0.00  0.00     0.000 C
ATOM     28  C5  IDS B   2      33.601  19.652  28.0550  0.00  0.00     0.000 C
ATOM     29  O5  IDS B   2      32.552  18.696  28.0330  0.00  0.00     0.000 O
ATOM     30   O  IDS B   2      32.620  21.032  24.7590  0.00  0.00     0.000 O
ATOM     32  HD  IDS B   2      32.839  21.822  25.0380  0.00  0.00     0.000 HD
BRANCH 25 32
ATOM     32   O  IDS B   2      30.164  19.936  25.6340  0.00  0.00     0.000 O
ATOM     33   S  IDS B   2      29.078  21.104  25.2100  0.00  0.00     0.000 S
ATOM     34   O  IDS B   2      28.024  20.428  24.4710  0.00  0.00     0.000 OA
ATOM     35   O  IDS B   2      28.560  21.743  26.4120  0.00  0.00     0.000 OA
ATOM     36   O  IDS B   2      29.805  22.025  24.3670  0.00  0.00     0.000 OA
ENDBRANCH 25 32
BRANCH 28 37
ATOM     37   C  IDS B   2      34.814  19.025  28.7730  0.00  0.00     0.000 C
ATOM     38   O  IDS B   2      35.676  19.833  29.0270  0.00  0.00     0.000 OA
ATOM     39   O  IDS B   2      34.936  17.833  29.1470  0.00  0.00     0.000 OA
ENDBRANCH 28 37
BRANCH 24 40
ATOM     40  O4  SUS B   3      30.210  19.289  28.6490  0.00  0.00     0.000 O
BRANCH 40 44
ATOM     41  C1  SUS B   3      28.357  16.191  30.7750  0.00  0.00     0.000 C
ATOM     42  C2  SUS B   3      29.828  16.500  31.1180  0.00  0.00     0.000 C
ATOM     43  C3  SUS B   3      30.174  17.905  30.6300  0.00  0.00     0.000 C
ATOM     44  C4  SUS B   3      29.851  18.005  29.1480  0.00  0.00     0.000 C
ATOM     45  C5  SUS B   3      28.367  17.772  28.9520  0.00  0.00     0.000 C
ATOM     46  O5  SUS B   3      28.058  16.435  29.3960  0.00  0.00     0.000 O
BRANCH 42 49
ATOM     47   N  SUS B   3      30.057  16.275  32.5560  0.00  0.00     0.000 N
ATOM     49  HD  SUS B   3      30.404  16.933  33.0000  0.00  0.00     0.000 HD
ATOM     49   S  SUS B   3      30.930  14.964  32.8450  0.00  0.00     0.000 S
ATOM     50   O  SUS B   3      32.168  15.055  32.1770  0.00  0.00     0.000 OA
ATOM     51   O  SUS B   3      31.111  15.200  34.3660  0.00  0.00     0.000 OA
ATOM     52   O  SUS B   3      30.144  13.818  32.6090  0.00  0.00     0.000 OA
ENDBRANCH 42 49
BRANCH 43 53
ATOM     53   O  SUS B   3      31.618  18.119  30.8450  0.00  0.00     0.000 O
ATOM     54   S  SUS B   3      32.052  19.210  31.9960  0.00  0.00     0.000 S
ATOM     55   O  SUS B   3      31.740  18.624  33.2920  0.00  0.00     0.000 OA
ATOM     56   O  SUS B   3      33.472  19.412  31.7710  0.00  0.00     0.000 OA
ATOM     57   O  SUS B   3      31.251  20.412  31.7500  0.00  0.00     0.000 OA
ENDBRANCH 43 53
BRANCH 45 58
ATOM     58   C  SUS B   3      27.950  17.954  27.5090  0.00  0.00     0.000 C
ATOM     59   S  SUS B   3      27.361  16.643  25.3830  0.00  0.00     0.000 S
ATOM     60   O  SUS B   3      27.613  16.675  26.9460  0.00  0.00     0.000 O
ATOM     61   O  SUS B   3      28.683  16.669  24.7850  0.00  0.00     0.000 OA
ATOM     62   O  SUS B   3      26.712  15.368  25.2420  0.00  0.00     0.000 OA
ATOM     63   O  SUS B   3      26.548  17.774  25.1060  0.00  0.00     0.000 OA
ENDBRANCH 45 58
BRANCH 41 64
ATOM     64  O4  IDS B   4      27.456  16.744  31.6520  0.00  0.00     0.000 O
BRANCH 64 68
ATOM     65  C1  IDS B   4      24.853  16.803  34.2000  0.00  0.00     0.000 C
ATOM     66  C2  IDS B   4      26.039  15.839  34.3300  0.00  0.00     0.000 C
ATOM     67  C3  IDS B   4      26.372  15.078  33.0580  0.00  0.00     0.000 C
ATOM     68  C4  IDS B   4      26.268  15.937  31.8120  0.00  0.00     0.000 C
ATOM     69  C5  IDS B   4      24.978  16.762  31.9070  0.00  0.00     0.000 C
ATOM     70  O5  IDS B   4      25.046  17.613  33.0540  0.00  0.00     0.000 O
ATOM     71   O  IDS B   4      25.468  13.996  32.9680  0.00  0.00     0.000 O
ATOM     73  HD  IDS B   4      25.895  14.634  33.3680  0.00  0.00     0.000 HD
BRANCH 66 73
ATOM     73   O  IDS B   4      27.246  16.615  34.6490  0.00  0.00     0.000 O
ATOM     74   S  IDS B   4      27.917  16.408  36.1060  0.00  0.00     0.000 S
ATOM     75   O  IDS B   4      26.883  16.695  37.0780  0.00  0.00     0.000 OA
ATOM     76   O  IDS B   4      28.984  17.376  36.0810  0.00  0.00     0.000 OA
ATOM     77   O  IDS B   4      28.361  15.034  36.1340  0.00  0.00     0.000 OA
ENDBRANCH 66 73
BRANCH 69 78
ATOM     78   C  IDS B   4      24.616  17.514  30.6330  0.00  0.00     0.000 C
ATOM     79   O  IDS B   4      24.924  17.021  29.5490  0.00  0.00     0.000 OA
ATOM     80   O  IDS B   4      23.929  18.548  30.7260  0.00  0.00     0.000 OA
ENDBRANCH 69 78
BRANCH 65 81
ATOM     81  O4  SGN B   5      23.688  16.099  34.2630  0.00  0.00     0.000 O
BRANCH 81 85
ATOM     82  C1  SGN B   5      19.734  16.240  35.6700  0.00  0.00     0.000 C
ATOM     83  C2  SGN B   5      20.036  16.986  34.3610  0.00  0.00     0.000 C
ATOM     84  C3  SGN B   5      21.348  16.461  33.7630  0.00  0.00     0.000 C
ATOM     85  C4  SGN B   5      22.456  16.591  34.7940  0.00  0.00     0.000 C
ATOM     86  C5  SGN B   5      22.054  15.794  36.0330  0.00  0.00     0.000 C
ATOM     87  O5  SGN B   5      20.830  16.343  36.5580  0.00  0.00     0.000 O
ATOM     88   O  SGN B   5      21.662  17.181  32.5910  0.00  0.00     0.000 O
ATOM     90  HD  SGN B   5      21.316  16.387  32.6160  0.00  0.00     0.000 HD
BRANCH 83 92
ATOM     90   N  SGN B   5      18.589  17.223  34.5290  0.00  0.00     0.000 N
ATOM     92  HD  SGN B   5      18.402  17.442  35.3460  0.00  0.00     0.000 HD
ATOM     92   S  SGN B   5      17.833  18.078  33.4100  0.00  0.00     0.000 S
ATOM     93   O  SGN B   5      16.475  18.130  33.8610  0.00  0.00     0.000 OA
ATOM     94   O  SGN B   5      18.584  19.278  33.2680  0.00  0.00     0.000 OA
ATOM     95   O  SGN B   5      18.008  17.282  32.1350  0.00  0.00     0.000 OA
ENDBRANCH 83 92
BRANCH 86 96
ATOM     96   C  SGN B   5      23.078  15.824  37.1490  0.00  0.00     0.000 C
ATOM     97   O  SGN B   5      22.657  16.705  38.1920  0.00  0.00     0.000 O
ATOM     98   S  SGN B   5      22.682  16.103  39.6780  0.00  0.00     0.000 S
ATOM     99   O  SGN B   5      22.413  17.262  40.4960  0.00  0.00     0.000 OA
ATOM    100   O  SGN B   5      21.691  15.090  39.7440  0.00  0.00     0.000 OA
ATOM    101   O  SGN B   5      24.007  15.596  39.8340  0.00  0.00     0.000 OA
ENDBRANCH 86 96
BRANCH 82 102
ATOM    102  O4  IDS B   6      19.410  14.932  35.4660  0.00  0.00     0.000 O
BRANCH 102 106
ATOM    103  C1  IDS B   6      16.755  12.472  35.8660  0.00  0.00     0.000 C
ATOM    104  C2  IDS B   6      16.444  13.977  35.9010  0.00  0.00     0.000 C
ATOM    105  C3  IDS B   6      17.363  14.803  36.7800  0.00  0.00     0.000 C
ATOM    106  C4  IDS B   6      18.817  14.380  36.6690  0.00  0.00     0.000 C
ATOM    107  C5  IDS B   6      18.913  12.851  36.6710  0.00  0.00     0.000 C
ATOM    108  O5  IDS B   6      18.134  12.268  35.6240  0.00  0.00     0.000 O
ATOM    109   O  IDS B   6      16.908  14.696  38.1180  0.00  0.00     0.000 O
ATOM    111  HD  IDS B   6      16.459  13.955  38.1270  0.00  0.00     0.000 HD
BRANCH 104 111
ATOM    111   O  IDS B   6      16.601  14.530  34.5470  0.00  0.00     0.000 O
ATOM    112   S  IDS B   6      15.291  14.677  33.6380  0.00  0.00     0.000 S
ATOM    113   O  IDS B   6      14.758  13.327  33.5430  0.00  0.00     0.000 OA
ATOM    114   O  IDS B   6      14.392  15.648  34.2720  0.00  0.00     0.000 OA
ATOM    115   O  IDS B   6      15.906  15.152  32.4170  0.00  0.00     0.000 OA
ENDBRANCH 104 111
BRANCH 107 116
ATOM    116   C  IDS B   6      20.371  12.437  36.5230  0.00  0.00     0.000 C
ATOM    117   O  IDS B   6      20.638  11.716  35.5950  0.00  0.00     0.000 OA
ATOM    118   O  IDS B   6      21.222  12.813  37.3140  0.00  0.00     0.000 OA
ENDBRANCH 107 116
BRANCH 103 119
ATOM    119  O4  SGN B   7      16.156  11.994  36.9870  0.00  0.00     0.000 O
BRANCH 119 123
ATOM    120  C1  SGN B   7      15.154   8.212  38.4640  0.00  0.00     0.000 C
ATOM    121  C2  SGN B   7      16.529   8.788  38.8520  0.00  0.00     0.000 C
ATOM    122  C3  SGN B   7      16.575  10.298  38.5830  0.00  0.00     0.000 C
ATOM    123  C4  SGN B   7      16.176  10.575  37.1430  0.00  0.00     0.000 C
ATOM    124  C5  SGN B   7      14.798   9.956  36.8540  0.00  0.00     0.000 C
ATOM    125  O5  SGN B   7      14.801   8.536  37.1190  0.00  0.00     0.000 O
ATOM    126   O  SGN B   7      17.894  10.780  38.8610  0.00  0.00     0.000 O
ATOM    128  HD  SGN B   7      17.323  10.131  38.9090  0.00  0.00     0.000 HD
BRANCH 121 130
ATOM    128   N  SGN B   7      16.928   7.468  39.3450  0.00  0.00     0.000 N
ATOM    130  HD  SGN B   7      17.750   7.624  39.1190  0.00  0.00     0.000 HD
ATOM    130   S  SGN B   7      17.768   7.276  40.7060  0.00  0.00     0.000 S
ATOM    131   O  SGN B   7      17.065   8.031  41.6860  0.00  0.00     0.000 OA
ATOM    132   O  SGN B   7      17.998   5.890  40.8970  0.00  0.00     0.000 OA
ATOM    133   O  SGN B   7      19.156   7.851  40.2620  0.00  0.00     0.000 OA
ENDBRANCH 121 130
BRANCH 124 134
ATOM    134   C  SGN B   7      14.367  10.077  35.4220  0.00  0.00     0.000 C
ATOM    135   O  SGN B   7      13.444   9.014  35.1310  0.00  0.00     0.000 O
ATOM    136   S  SGN B   7      12.754   9.054  33.7200  0.00  0.00     0.000 S
ATOM    137   O  SGN B   7      11.965   7.849  33.6200  0.00  0.00     0.000 OA
ATOM    138   O  SGN B   7      13.841   9.097  32.7680  0.00  0.00     0.000 OA
ATOM    139   O  SGN B   7      11.965  10.274  33.7900  0.00  0.00     0.000 OA
ENDBRANCH 124 134
BRANCH 120 140
ATOM    140  O4  IDS B   8      13.972   8.436  39.0490  0.00  0.00     0.000 O
BRANCH 140 144
ATOM    141  C1  IDS B   8      10.569   9.086  40.0280  0.00  0.00     0.000 C
ATOM    142  C2  IDS B   8      11.708  10.082  40.3860  0.00  0.00     0.000 C
ATOM    143  C3  IDS B   8      12.936   9.396  41.0120  0.00  0.00     0.000 C
ATOM    144  C4  IDS B   8      13.311   8.110  40.2780  0.00  0.00     0.000 C
ATOM    145  C5  IDS B   8      12.052   7.276  39.9940  0.00  0.00     0.000 C
ATOM    146  O5  IDS B   8      11.088   8.015  39.2490  0.00  0.00     0.000 O
BRANCH 142 147
ATOM    147   O  IDS B   8      12.171  10.770  39.1520  0.00  0.00     0.000 O
ATOM    148   S  IDS B   8      12.332  12.383  39.1040  0.00  0.00     0.000 S
ATOM    149   O  IDS B   8      11.608  12.930  40.2290  0.00  0.00     0.000 OA
ATOM    150   O  IDS B   8      13.759  12.632  39.1800  0.00  0.00     0.000 OA
ATOM    151   O  IDS B   8      11.750  12.788  37.8380  0.00  0.00     0.000 OA
ENDBRANCH 142 147
BRANCH 145 152
ATOM    152   C  IDS B   8      12.347   6.033  39.1790  0.00  0.00     0.000 C
ATOM    153   O  IDS B   8      12.869   5.065  39.7200  0.00  0.00     0.000 OA
ATOM    154   O  IDS B   8      12.045   6.002  38.0000  0.00  0.00     0.000 OA
ENDBRANCH 145 152
ENDBRANCH 140 144
ENDBRANCH 120 140
ENDBRANCH 119 123
ENDBRANCH 103 119
ENDBRANCH 102 106
ENDBRANCH 82 102
ENDBRANCH 81 85
ENDBRANCH 65 81
ENDBRANCH 64 68
ENDBRANCH 41 64
ENDBRANCH 40 44
ENDBRANCH 24 40
ENDBRANCH 23 27
ENDBRANCH 1 23
TORSDOF 31
ENDMDL
MODEL 61
REMARK VINA RESULT:      -6.8      3.112      5.053
ROOT
ATOM      1  C1  SGN B   1      28.367  10.740  14.5030  0.00  0.00     0.000 C
ATOM      2  C2  SGN B   1      29.677  10.233  15.1300  0.00  0.00     0.000 C
ATOM      3  C3  SGN B   1      30.288   9.115  14.2780  0.00  0.00     0.000 C
ATOM      4  C4  SGN B   1      29.277   7.991  14.0810  0.00  0.00     0.000 C
ATOM      5  C5  SGN B   1      27.958   8.585  13.5930  0.00  0.00     0.000 C
ATOM      6  O5  SGN B   1      27.517   9.601  14.5150  0.00  0.00     0.000 O
ATOM      7   O  SGN B   1      31.476   8.618  14.8840  0.00  0.00     0.000 O
ATOM      9  HD  SGN B   1      30.883   8.443  15.4900  0.00  0.00     0.000 HD
ATOM      9   O  SGN B   1      29.778   7.068  13.1320  0.00  0.00     0.000 O
ATOM     11  HD  SGN B   1      29.185   6.893  13.7380  0.00  0.00     0.000 HD
ENDROOT
BRANCH 2 13
ATOM     11   N  SGN B   1      29.554  11.197  16.2400  0.00  0.00     0.000 N
ATOM     13  HD  SGN B   1      29.760  11.467  15.4430  0.00  0.00     0.000 HD
ATOM     13   S  SGN B   1      30.381  12.577  16.2750  0.00  0.00     0.000 S
ATOM     14   O  SGN B   1      31.152  12.711  15.1020  0.00  0.00     0.000 OA
ATOM     15   O  SGN B   1      29.493  13.624  16.6530  0.00  0.00     0.000 OA
ATOM     16   O  SGN B   1      31.279  12.266  17.5120  0.00  0.00     0.000 OA
ENDBRANCH 2 13
BRANCH 5 17
ATOM     17   C  SGN B   1      26.841   7.579  13.4650  0.00  0.00     0.000 C
ATOM     18   O  SGN B   1      25.806   8.068  12.5900  0.00  0.00     0.000 O
ATOM     19   S  SGN B   1      24.304   7.876  13.1040  0.00  0.00     0.000 S
ATOM     20   O  SGN B   1      23.472   8.220  11.9700  0.00  0.00     0.000 OA
ATOM     21   O  SGN B   1      24.232   6.481  13.4710  0.00  0.00     0.000 OA
ATOM     22   O  SGN B   1      24.168   8.786  14.2200  0.00  0.00     0.000 OA
ENDBRANCH 5 17
BRANCH 1 23
ATOM     23  O4  IDS B   2      27.915  11.673  13.6180  0.00  0.00     0.000 O
BRANCH 23 27
ATOM     24  C1  IDS B   2      26.165  15.003  15.3730  0.00  0.00     0.000 C
ATOM     25  C2  IDS B   2      25.213  13.819  15.0920  0.00  0.00     0.000 C
ATOM     26  C3  IDS B   2      25.998  12.561  14.7320  0.00  0.00     0.000 C
ATOM     27  C4  IDS B   2      26.967  12.760  13.5740  0.00  0.00     0.000 C
ATOM     28  C5  IDS B   2      27.601  14.163  13.6530  0.00  0.00     0.000 C
ATOM     29  O5  IDS B   2      27.504  14.691  14.9670  0.00  0.00     0.000 O
ATOM     30   O  IDS B   2      25.089  11.532  14.3590  0.00  0.00     0.000 O
ATOM     32  HD  IDS B   2      24.792  11.615  13.5500  0.00  0.00     0.000 HD
BRANCH 25 32
ATOM     32   O  IDS B   2      24.359  13.495  16.2620  0.00  0.00     0.000 O
ATOM     33   S  IDS B   2      22.721  13.688  16.2250  0.00  0.00     0.000 S
ATOM     34   O  IDS B   2      22.260  13.493  17.5900  0.00  0.00     0.000 OA
ATOM     35   O  IDS B   2      22.401  15.023  15.7400  0.00  0.00     0.000 OA
ATOM     36   O  IDS B   2      22.226  12.651  15.3490  0.00  0.00     0.000 OA
ENDBRANCH 25 32
BRANCH 28 37
ATOM     37   C  IDS B   2      29.058  14.323  13.1720  0.00  0.00     0.000 C
ATOM     38   O  IDS B   2      29.641  15.220  13.7360  0.00  0.00     0.000 OA
ATOM     39   O  IDS B   2      29.664  13.601  12.3430  0.00  0.00     0.000 OA
ENDBRANCH 28 37
BRANCH 24 40
ATOM     40  O4  SUS B   3      25.658  16.224  15.6440  0.00  0.00     0.000 O
BRANCH 40 44
ATOM     41  C1  SUS B   3      27.175  19.327  18.0140  0.00  0.00     0.000 C
ATOM     42  C2  SUS B   3      27.884  19.053  16.6720  0.00  0.00     0.000 C
ATOM     43  C3  SUS B   3      26.947  18.265  15.7600  0.00  0.00     0.000 C
ATOM     44  C4  SUS B   3      26.494  17.008  16.4870  0.00  0.00     0.000 C
ATOM     45  C5  SUS B   3      25.735  17.411  17.7350  0.00  0.00     0.000 C
ATOM     46  O5  SUS B   3      26.636  18.134  18.5960  0.00  0.00     0.000 O
BRANCH 42 49
ATOM     47   N  SUS B   3      28.366  20.356  16.1840  0.00  0.00     0.000 N
ATOM     49  HD  SUS B   3      28.082  20.607  15.4050  0.00  0.00     0.000 HD
ATOM     49   S  SUS B   3      29.964  20.465  16.1880  0.00  0.00     0.000 S
ATOM     50   O  SUS B   3      30.518  19.432  15.4060  0.00  0.00     0.000 OA
ATOM     51   O  SUS B   3      30.054  21.822  15.4440  0.00  0.00     0.000 OA
ATOM     52   O  SUS B   3      30.420  20.594  17.5150  0.00  0.00     0.000 OA
ENDBRANCH 42 49
BRANCH 43 53
ATOM     53   O  SUS B   3      27.699  17.898  14.5440  0.00  0.00     0.000 O
ATOM     54   S  SUS B   3      27.212  18.576  13.1280  0.00  0.00     0.000 S
ATOM     55   O  SUS B   3      27.575  19.985  13.1720  0.00  0.00     0.000 OA
ATOM     56   O  SUS B   3      27.922  17.819  12.1130  0.00  0.00     0.000 OA
ATOM     57   O  SUS B   3      25.757  18.404  13.0650  0.00  0.00     0.000 OA
ENDBRANCH 43 53
BRANCH 45 58
ATOM     58   C  SUS B   3      25.164  16.213  18.4620  0.00  0.00     0.000 C
ATOM     59   S  SUS B   3      24.606  15.336  20.8080  0.00  0.00     0.000 S
ATOM     60   O  SUS B   3      24.990  16.538  19.8510  0.00  0.00     0.000 O
ATOM     61   O  SUS B   3      25.846  14.616  21.0300  0.00  0.00     0.000 OA
ATOM     62   O  SUS B   3      24.163  16.052  21.9730  0.00  0.00     0.000 OA
ATOM     63   O  SUS B   3      23.597  14.610  20.1200  0.00  0.00     0.000 OA
ENDBRANCH 45 58
BRANCH 41 64
ATOM     64  O4  IDS B   4      26.293  20.378  17.9690  0.00  0.00     0.000 O
BRANCH 64 68
ATOM     65  C1  IDS B   4      24.513  23.387  18.9970  0.00  0.00     0.000 C
ATOM     66  C2  IDS B   4      26.046  23.382  18.9260  0.00  0.00     0.000 C
ATOM     67  C3  IDS B   4      26.700  22.170  19.5670  0.00  0.00     0.000 C
ATOM     68  C4  IDS B   4      25.957  20.879  19.2820  0.00  0.00     0.000 C
ATOM     69  C5  IDS B   4      24.456  21.141  19.4700  0.00  0.00     0.000 C
ATOM     70  O5  IDS B   4      24.032  22.137  18.5370  0.00  0.00     0.000 O
ATOM     71   O  IDS B   4      26.739  22.402  20.9600  0.00  0.00     0.000 O
ATOM     73  HD  IDS B   4      26.663  22.625  20.1260  0.00  0.00     0.000 HD
BRANCH 66 73
ATOM     73   O  IDS B   4      26.454  23.347  17.5150  0.00  0.00     0.000 O
ATOM     74   S  IDS B   4      27.603  24.377  17.0310  0.00  0.00     0.000 S
ATOM     75   O  IDS B   4      27.132  25.704  17.3680  0.00  0.00     0.000 OA
ATOM     76   O  IDS B   4      27.659  24.116  15.6150  0.00  0.00     0.000 OA
ATOM     77   O  IDS B   4      28.793  23.994  17.7530  0.00  0.00     0.000 OA
ENDBRANCH 66 73
BRANCH 69 78
ATOM     78   C  IDS B   4      23.590  19.889  19.4350  0.00  0.00     0.000 C
ATOM     79   O  IDS B   4      23.673  19.087  20.3640  0.00  0.00     0.000 OA
ATOM     80   O  IDS B   4      22.750  19.771  18.5250  0.00  0.00     0.000 OA
ENDBRANCH 69 78
BRANCH 65 81
ATOM     81  O4  SGN B   5      24.119  23.777  20.2410  0.00  0.00     0.000 O
BRANCH 81 85
ATOM     82  C1  SGN B   5      20.449  24.516  22.1440  0.00  0.00     0.000 C
ATOM     83  C2  SGN B   5      20.393  23.974  20.7080  0.00  0.00     0.000 C
ATOM     84  C3  SGN B   5      21.742  23.336  20.3470  0.00  0.00     0.000 C
ATOM     85  C4  SGN B   5      22.850  24.352  20.5600  0.00  0.00     0.000 C
ATOM     86  C5  SGN B   5      22.820  24.796  22.0210  0.00  0.00     0.000 C
ATOM     87  O5  SGN B   5      21.542  25.402  22.2930  0.00  0.00     0.000 O
ATOM     88   O  SGN B   5      21.718  22.887  19.0100  0.00  0.00     0.000 O
ATOM     90  HD  SGN B   5      21.628  22.385  19.7100  0.00  0.00     0.000 HD
BRANCH 83 92
ATOM     90   N  SGN B   5      18.963  24.149  21.0270  0.00  0.00     0.000 N
ATOM     92  HD  SGN B   5      18.811  24.937  21.3520  0.00  0.00     0.000 HD
ATOM     92   S  SGN B   5      17.888  23.637  19.9610  0.00  0.00     0.000 S
ATOM     93   O  SGN B   5      16.623  23.952  20.5550  0.00  0.00     0.000 OA
ATOM     94   O  SGN B   5      18.261  24.229  18.7220  0.00  0.00     0.000 OA
ATOM     95   O  SGN B   5      18.139  22.150  19.8450  0.00  0.00     0.000 OA
ENDBRANCH 83 92
BRANCH 86 96
ATOM     96   C  SGN B   5      23.886  25.808  22.3840  0.00  0.00     0.000 C
ATOM     97   O  SGN B   5      23.829  26.935  21.5060  0.00  0.00     0.000 O
ATOM     98   S  SGN B   5      23.784  28.376  22.2080  0.00  0.00     0.000 S
ATOM     99   O  SGN B   5      23.937  29.278  21.0920  0.00  0.00     0.000 OA
ATOM    100   O  SGN B   5      22.543  28.480  22.8880  0.00  0.00     0.000 OA
ATOM    101   O  SGN B   5      24.904  28.375  23.0920  0.00  0.00     0.000 OA
ENDBRANCH 86 96
BRANCH 82 102
ATOM    102  O4  IDS B   6      20.512  23.524  23.0770  0.00  0.00     0.000 O
BRANCH 102 106
ATOM    103  C1  IDS B   6      19.524  21.528  25.9580  0.00  0.00     0.000 C
ATOM    104  C2  IDS B   6      18.607  21.643  24.7300  0.00  0.00     0.000 C
ATOM    105  C3  IDS B   6      18.407  23.053  24.2070  0.00  0.00     0.000 C
ATOM    106  C4  IDS B   6      19.687  23.870  24.2180  0.00  0.00     0.000 C
ATOM    107  C5  IDS B   6      20.443  23.630  25.5290  0.00  0.00     0.000 C
ATOM    108  O5  IDS B   6      20.724  22.245  25.7360  0.00  0.00     0.000 O
ATOM    109   O  IDS B   6      17.405  23.677  24.9930  0.00  0.00     0.000 O
ATOM    111  HD  IDS B   6      17.416  23.232  25.7360  0.00  0.00     0.000 HD
BRANCH 104 111
ATOM    111   O  IDS B   6      19.206  20.896  23.6130  0.00  0.00     0.000 O
ATOM    112   S  IDS B   6      18.447  19.587  23.0910  0.00  0.00     0.000 S
ATOM    113   O  IDS B   6      18.368  18.720  24.2570  0.00  0.00     0.000 OA
ATOM    114   O  IDS B   6      17.149  19.991  22.5390  0.00  0.00     0.000 OA
ATOM    115   O  IDS B   6      19.400  19.146  22.0950  0.00  0.00     0.000 OA
ENDBRANCH 104 111
BRANCH 107 116
ATOM    116   C  IDS B   6      21.742  24.425  25.5140  0.00  0.00     0.000 C
ATOM    117   O  IDS B   6      22.765  23.791  25.4680  0.00  0.00     0.000 OA
ATOM    118   O  IDS B   6      21.741  25.645  25.5570  0.00  0.00     0.000 OA
ENDBRANCH 107 116
BRANCH 103 119
ATOM    119  O4  SGN B   7      18.706  21.826  26.9990  0.00  0.00     0.000 O
BRANCH 119 123
ATOM    120  C1  SGN B   7      18.220  20.533  30.9460  0.00  0.00     0.000 C
ATOM    121  C2  SGN B   7      19.406  21.468  30.6430  0.00  0.00     0.000 C
ATOM    122  C3  SGN B   7      19.213  22.159  29.2860  0.00  0.00     0.000 C
ATOM    123  C4  SGN B   7      18.961  21.115  28.2110  0.00  0.00     0.000 C
ATOM    124  C5  SGN B   7      17.768  20.231  28.6090  0.00  0.00     0.000 C
ATOM    125  O5  SGN B   7      17.993  19.601  29.8900  0.00  0.00     0.000 O
ATOM    126   O  SGN B   7      20.376  22.941  28.9930  0.00  0.00     0.000 O
ATOM    128  HD  SGN B   7      19.930  22.474  29.5700  0.00  0.00     0.000 HD
BRANCH 121 130
ATOM    128   N  SGN B   7      19.765  21.237  32.0440  0.00  0.00     0.000 N
ATOM    130  HD  SGN B   7      20.583  21.070  31.8150  0.00  0.00     0.000 HD
ATOM    130   S  SGN B   7      20.646  22.286  32.8900  0.00  0.00     0.000 S
ATOM    131   O  SGN B   7      20.014  23.546  32.6940  0.00  0.00     0.000 OA
ATOM    132   O  SGN B   7      20.822  21.768  34.1990  0.00  0.00     0.000 OA
ATOM    133   O  SGN B   7      22.040  22.102  32.2010  0.00  0.00     0.000 OA
ENDBRANCH 121 130
BRANCH 124 134
ATOM    134   C  SGN B   7      17.512  19.095  27.6630  0.00  0.00     0.000 C
ATOM    135   O  SGN B   7      16.281  18.454  28.0400  0.00  0.00     0.000 O
ATOM    136   S  SGN B   7      15.754  17.330  27.0780  0.00  0.00     0.000 S
ATOM    137   O  SGN B   7      14.582  16.771  27.7090  0.00  0.00     0.000 OA
ATOM    138   O  SGN B   7      16.842  16.384  26.9690  0.00  0.00     0.000 OA
ATOM    139   O  SGN B   7      15.474  18.069  25.8570  0.00  0.00     0.000 OA
ENDBRANCH 124 134
BRANCH 120 140
ATOM    140  O4  IDS B   8      16.951  20.869  31.2050  0.00  0.00     0.000 O
BRANCH 140 144
ATOM    141  C1  IDS B   8      13.406  21.455  31.4180  0.00  0.00     0.000 C
ATOM    142  C2  IDS B   8      14.371  22.567  30.9190  0.00  0.00     0.000 C
ATOM    143  C3  IDS B   8      15.590  22.765  31.8390  0.00  0.00     0.000 C
ATOM    144  C4  IDS B   8      16.195  21.434  32.2830  0.00  0.00     0.000 C
ATOM    145  C5  IDS B   8      15.084  20.465  32.7130  0.00  0.00     0.000 C
ATOM    146  O5  IDS B   8      14.132  20.259  31.6720  0.00  0.00     0.000 O
BRANCH 142 147
ATOM    147   O  IDS B   8      14.889  22.207  29.5730  0.00  0.00     0.000 O
ATOM    148   S  IDS B   8      14.881  23.282  28.3590  0.00  0.00     0.000 S
ATOM    149   O  IDS B   8      13.984  24.354  28.7280  0.00  0.00     0.000 OA
ATOM    150   O  IDS B   8      16.257  23.723  28.2230  0.00  0.00     0.000 OA
ATOM    151   O  IDS B   8      14.402  22.549  27.2030  0.00  0.00     0.000 OA
ENDBRANCH 142 147
BRANCH 145 152
ATOM    152   C  IDS B   8      15.615  19.091  33.0710  0.00  0.00     0.000 C
ATOM    153   O  IDS B   8      15.181  18.105  32.4880  0.00  0.00     0.000 OA
ATOM    154   O  IDS B   8      16.482  18.984  33.9200  0.00  0.00     0.000 OA
ENDBRANCH 145 152
ENDBRANCH 140 144
ENDBRANCH 120 140
ENDBRANCH 119 123
ENDBRANCH 103 119
ENDBRANCH 102 106
ENDBRANCH 82 102
ENDBRANCH 81 85
ENDBRANCH 65 81
ENDBRANCH 64 68
ENDBRANCH 41 64
ENDBRANCH 40 44
ENDBRANCH 24 40
ENDBRANCH 23 27
ENDBRANCH 1 23
TORSDOF 31
ENDMDL
MODEL 62
REMARK VINA RESULT:      -6.8     10.363     16.835
ROOT
ATOM      1  C1  SGN B   1      14.918  21.061  19.9910  0.00  0.00     0.000 C
ATOM      2  C2  SGN B   1      13.589  20.308  20.1710  0.00  0.00     0.000 C
ATOM      3  C3  SGN B   1      13.037  19.849  18.8170  0.00  0.00     0.000 C
ATOM      4  C4  SGN B   1      12.894  21.041  17.8760  0.00  0.00     0.000 C
ATOM      5  C5  SGN B   1      14.206  21.822  17.8560  0.00  0.00     0.000 C
ATOM      6  O5  SGN B   1      14.568  22.190  19.2010  0.00  0.00     0.000 O
ATOM      7   O  SGN B   1      11.786  19.192  18.9840  0.00  0.00     0.000 O
ATOM      9  HD  SGN B   1      11.612  19.982  19.2920  0.00  0.00     0.000 HD
ATOM      9   O  SGN B   1      12.581  20.578  16.5750  0.00  0.00     0.000 O
ATOM     11  HD  SGN B   1      12.407  21.369  16.8830  0.00  0.00     0.000 HD
ENDROOT
BRANCH 2 13
ATOM     11   N  SGN B   1      13.319  20.260  21.6210  0.00  0.00     0.000 N
ATOM     13  HD  SGN B   1      14.111  20.088  21.3150  0.00  0.00     0.000 HD
ATOM     13   S  SGN B   1      14.148  19.309  22.6180  0.00  0.00     0.000 S
ATOM     14   O  SGN B   1      15.150  18.615  21.9080  0.00  0.00     0.000 OA
ATOM     15   O  SGN B   1      14.505  20.066  23.7710  0.00  0.00     0.000 OA
ATOM     16   O  SGN B   1      12.985  18.356  23.0350  0.00  0.00     0.000 OA
ENDBRANCH 2 13
BRANCH 5 17
ATOM     17   C  SGN B   1      14.153  23.090  17.0420  0.00  0.00     0.000 C
ATOM     18   O  SGN B   1      12.899  23.775  17.2350  0.00  0.00     0.000 O
ATOM     19   S  SGN B   1      12.185  24.318  15.9110  0.00  0.00     0.000 S
ATOM     20   O  SGN B   1      11.100  25.150  16.3850  0.00  0.00     0.000 OA
ATOM     21   O  SGN B   1      13.223  25.054  15.2280  0.00  0.00     0.000 OA
ATOM     22   O  SGN B   1      11.744  23.134  15.2070  0.00  0.00     0.000 OA
ENDBRANCH 5 17
BRANCH 1 23
ATOM     23  O4  IDS B   2      16.260  20.830  19.9380  0.00  0.00     0.000 O
BRANCH 23 27
ATOM     24  C1  IDS B   2      19.260  20.534  22.7920  0.00  0.00     0.000 C
ATOM     25  C2  IDS B   2      18.388  21.807  22.8710  0.00  0.00     0.000 C
ATOM     26  C3  IDS B   2      17.151  21.676  21.9860  0.00  0.00     0.000 C
ATOM     27  C4  IDS B   2      17.473  21.332  20.5380  0.00  0.00     0.000 C
ATOM     28  C5  IDS B   2      18.665  20.355  20.4810  0.00  0.00     0.000 C
ATOM     29  O5  IDS B   2      18.830  19.684  21.7210  0.00  0.00     0.000 O
ATOM     30   O  IDS B   2      16.442  22.910  21.9870  0.00  0.00     0.000 O
ATOM     32  HD  IDS B   2      16.791  23.505  21.4630  0.00  0.00     0.000 HD
BRANCH 25 32
ATOM     32   O  IDS B   2      17.925  22.085  24.2520  0.00  0.00     0.000 O
ATOM     33   S  IDS B   2      18.361  23.457  25.0580  0.00  0.00     0.000 S
ATOM     34   O  IDS B   2      17.917  23.279  26.4310  0.00  0.00     0.000 OA
ATOM     35   O  IDS B   2      19.806  23.624  24.9840  0.00  0.00     0.000 OA
ATOM     36   O  IDS B   2      17.649  24.534  24.4100  0.00  0.00     0.000 OA
ENDBRANCH 25 32
BRANCH 28 37
ATOM     37   C  IDS B   2      18.680  19.302  19.3540  0.00  0.00     0.000 C
ATOM     38   O  IDS B   2      18.208  18.243  19.6960  0.00  0.00     0.000 OA
ATOM     39   O  IDS B   2      19.058  19.470  18.1690  0.00  0.00     0.000 OA
ENDBRANCH 28 37
BRANCH 24 40
ATOM     40  O4  SUS B   3      20.435  20.482  23.4530  0.00  0.00     0.000 O
BRANCH 40 44
ATOM     41  C1  SUS B   3      22.416  17.240  25.2170  0.00  0.00     0.000 C
ATOM     42  C2  SUS B   3      22.303  17.245  23.6790  0.00  0.00     0.000 C
ATOM     43  C3  SUS B   3      22.009  18.665  23.2010  0.00  0.00     0.000 C
ATOM     44  C4  SUS B   3      20.767  19.177  23.9140  0.00  0.00     0.000 C
ATOM     45  C5  SUS B   3      21.037  19.211  25.4050  0.00  0.00     0.000 C
ATOM     46  O5  SUS B   3      21.291  17.862  25.8470  0.00  0.00     0.000 O
BRANCH 42 49
ATOM     47   N  SUS B   3      23.530  16.573  23.2190  0.00  0.00     0.000 N
ATOM     49  HD  SUS B   3      24.062  17.038  22.7180  0.00  0.00     0.000 HD
ATOM     49   S  SUS B   3      23.232  15.186  22.4740  0.00  0.00     0.000 S
ATOM     50   O  SUS B   3      22.372  15.405  21.3780  0.00  0.00     0.000 OA
ATOM     51   O  SUS B   3      24.681  14.929  21.9880  0.00  0.00     0.000 OA
ATOM     52   O  SUS B   3      22.846  14.219  23.4230  0.00  0.00     0.000 OA
ENDBRANCH 42 49
BRANCH 43 53
ATOM     53   O  SUS B   3      21.767  18.614  21.7460  0.00  0.00     0.000 O
ATOM     54   S  SUS B   3      22.906  19.289  20.7730  0.00  0.00     0.000 S
ATOM     55   O  SUS B   3      24.080  18.428  20.8120  0.00  0.00     0.000 OA
ATOM     56   O  SUS B   3      22.266  19.348  19.4710  0.00  0.00     0.000 OA
ATOM     57   O  SUS B   3      23.199  20.612  21.3330  0.00  0.00     0.000 OA
ENDBRANCH 43 53
BRANCH 45 58
ATOM     58   C  SUS B   3      19.879  19.805  26.1770  0.00  0.00     0.000 C
ATOM     59   S  SUS B   3      17.623  19.203  27.2400  0.00  0.00     0.000 S
ATOM     60   O  SUS B   3      19.001  18.751  26.6050  0.00  0.00     0.000 O
ATOM     61   O  SUS B   3      16.789  19.574  26.1130  0.00  0.00     0.000 OA
ATOM     62   O  SUS B   3      17.201  17.978  27.8650  0.00  0.00     0.000 OA
ATOM     63   O  SUS B   3      17.944  20.260  28.1330  0.00  0.00     0.000 OA
ENDBRANCH 45 58
BRANCH 41 64
ATOM     64  O4  IDS B   4      23.633  17.675  25.6830  0.00  0.00     0.000 O
BRANCH 64 68
ATOM     65  C1  IDS B   4      26.784  17.762  27.5100  0.00  0.00     0.000 C
ATOM     66  C2  IDS B   4      26.543  16.694  26.4360  0.00  0.00     0.000 C
ATOM     67  C3  IDS B   4      25.192  16.006  26.5270  0.00  0.00     0.000 C
ATOM     68  C4  IDS B   4      24.064  16.963  26.8640  0.00  0.00     0.000 C
ATOM     69  C5  IDS B   4      24.542  17.885  27.9930  0.00  0.00     0.000 C
ATOM     70  O5  IDS B   4      25.671  18.637  27.5410  0.00  0.00     0.000 O
ATOM     71   O  IDS B   4      25.292  15.014  27.5280  0.00  0.00     0.000 O
ATOM     73  HD  IDS B   4      25.596  15.582  26.9490  0.00  0.00     0.000 HD
BRANCH 66 73
ATOM     73   O  IDS B   4      26.566  17.338  25.1150  0.00  0.00     0.000 O
ATOM     74   S  IDS B   4      27.607  16.771  24.0140  0.00  0.00     0.000 S
ATOM     75   O  IDS B   4      28.921  16.847  24.6150  0.00  0.00     0.000 OA
ATOM     76   O  IDS B   4      27.408  17.688  22.9190  0.00  0.00     0.000 OA
ATOM     77   O  IDS B   4      27.181  15.419  23.7410  0.00  0.00     0.000 OA
ENDBRANCH 66 73
BRANCH 69 78
ATOM     78   C  IDS B   4      23.452  18.759  28.5970  0.00  0.00     0.000 C
ATOM     79   O  IDS B   4      23.134  19.795  28.0140  0.00  0.00     0.000 OA
ATOM     80   O  IDS B   4      22.844  18.345  29.6010  0.00  0.00     0.000 OA
ENDBRANCH 69 78
BRANCH 65 81
ATOM     81  O4  SGN B   5      27.121  17.157  28.6830  0.00  0.00     0.000 O
BRANCH 81 85
ATOM     82  C1  SGN B   5      28.441  18.016  32.5760  0.00  0.00     0.000 C
ATOM     83  C2  SGN B   5      26.937  17.765  32.3890  0.00  0.00     0.000 C
ATOM     84  C3  SGN B   5      26.701  17.029  31.0620  0.00  0.00     0.000 C
ATOM     85  C4  SGN B   5      27.319  17.828  29.9290  0.00  0.00     0.000 C
ATOM     86  C5  SGN B   5      28.810  17.991  30.2150  0.00  0.00     0.000 C
ATOM     87  O5  SGN B   5      28.967  18.703  31.4570  0.00  0.00     0.000 O
ATOM     88   O  SGN B   5      25.317  16.846  30.8560  0.00  0.00     0.000 O
ATOM     90  HD  SGN B   5      25.868  16.239  31.1350  0.00  0.00     0.000 HD
BRANCH 83 92
ATOM     90   N  SGN B   5      26.744  18.500  33.6540  0.00  0.00     0.000 N
ATOM     92  HD  SGN B   5      26.685  19.352  33.5130  0.00  0.00     0.000 HD
ATOM     92   S  SGN B   5      25.695  17.915  34.7090  0.00  0.00     0.000 S
ATOM     93   O  SGN B   5      25.737  18.842  35.8010  0.00  0.00     0.000 OA
ATOM     94   O  SGN B   5      24.486  17.720  33.9850  0.00  0.00     0.000 OA
ATOM     95   O  SGN B   5      26.233  16.547  35.0680  0.00  0.00     0.000 OA
ENDBRANCH 83 92
BRANCH 86 96
ATOM     96   C  SGN B   5      29.565  18.764  29.1530  0.00  0.00     0.000 C
ATOM     97   O  SGN B   5      29.115  20.120  29.1040  0.00  0.00     0.000 O
ATOM     98   S  SGN B   5      30.256  21.245  29.1660  0.00  0.00     0.000 S
ATOM     99   O  SGN B   5      29.522  22.458  28.8950  0.00  0.00     0.000 OA
ATOM    100   O  SGN B   5      30.845  21.185  30.4550  0.00  0.00     0.000 OA
ATOM    101   O  SGN B   5      31.163  20.888  28.1230  0.00  0.00     0.000 OA
ENDBRANCH 86 96
BRANCH 82 102
ATOM    102  O4  IDS B   6      29.140  16.867  32.8000  0.00  0.00     0.000 O
BRANCH 102 106
ATOM    103  C1  IDS B   6      31.238  14.535  34.6490  0.00  0.00     0.000 C
ATOM    104  C2  IDS B   6      29.960  15.112  35.2790  0.00  0.00     0.000 C
ATOM    105  C3  IDS B   6      29.792  16.612  35.1330  0.00  0.00     0.000 C
ATOM    106  C4  IDS B   6      30.199  17.117  33.7600  0.00  0.00     0.000 C
ATOM    107  C5  IDS B   6      31.500  16.437  33.3230  0.00  0.00     0.000 C
ATOM    108  O5  IDS B   6      31.384  15.013  33.3260  0.00  0.00     0.000 O
ATOM    109   O  IDS B   6      30.556  17.243  36.1480  0.00  0.00     0.000 O
ATOM    111  HD  IDS B   6      31.154  16.652  36.3560  0.00  0.00     0.000 HD
BRANCH 104 111
ATOM    111   O  IDS B   6      28.789  14.523  34.6110  0.00  0.00     0.000 O
ATOM    112   S  IDS B   6      27.994  13.361  35.3720  0.00  0.00     0.000 S
ATOM    113   O  IDS B   6      28.988  12.323  35.5950  0.00  0.00     0.000 OA
ATOM    114   O  IDS B   6      27.409  13.922  36.5950  0.00  0.00     0.000 OA
ATOM    115   O  IDS B   6      27.022  13.034  34.3500  0.00  0.00     0.000 OA
ENDBRANCH 104 111
BRANCH 107 116
ATOM    116   C  IDS B   6      31.880  16.923  31.9300  0.00  0.00     0.000 C
ATOM    117   O  IDS B   6      31.846  16.107  31.0440  0.00  0.00     0.000 OA
ATOM    118   O  IDS B   6      32.211  18.081  31.7300  0.00  0.00     0.000 OA
ENDBRANCH 107 116
BRANCH 103 119
ATOM    119  O4  SGN B   7      32.189  14.760  35.5910  0.00  0.00     0.000 O
BRANCH 119 123
ATOM    120  C1  SGN B   7      35.753  12.937  36.8040  0.00  0.00     0.000 C
ATOM    121  C2  SGN B   7      35.780  13.764  35.5040  0.00  0.00     0.000 C
ATOM    122  C3  SGN B   7      34.548  14.673  35.4190  0.00  0.00     0.000 C
ATOM    123  C4  SGN B   7      33.286  13.845  35.5950  0.00  0.00     0.000 C
ATOM    124  C5  SGN B   7      33.358  13.055  36.9120  0.00  0.00     0.000 C
ATOM    125  O5  SGN B   7      34.532  12.213  36.9480  0.00  0.00     0.000 O
ATOM    126   O  SGN B   7      34.556  15.351  34.1570  0.00  0.00     0.000 O
ATOM    128  HD  SGN B   7      34.977  14.855  34.7280  0.00  0.00     0.000 HD
BRANCH 121 130
ATOM    128   N  SGN B   7      37.137  13.241  35.3240  0.00  0.00     0.000 N
ATOM    130  HD  SGN B   7      36.981  13.106  34.4830  0.00  0.00     0.000 HD
ATOM    130   S  SGN B   7      38.284  14.074  34.5600  0.00  0.00     0.000 S
ATOM    131   O  SGN B   7      38.275  15.362  35.1640  0.00  0.00     0.000 OA
ATOM    132   O  SGN B   7      39.469  13.294  34.5490  0.00  0.00     0.000 OA
ATOM    133   O  SGN B   7      37.750  14.001  33.0890  0.00  0.00     0.000 OA
ENDBRANCH 121 130
BRANCH 124 134
ATOM    134   C  SGN B   7      32.206  12.117  37.1210  0.00  0.00     0.000 C
ATOM    135   O  SGN B   7      32.728  10.806  37.4000  0.00  0.00     0.000 O
ATOM    136   S  SGN B   7      31.681   9.707  37.8010  0.00  0.00     0.000 S
ATOM    137   O  SGN B   7      32.417   8.472  37.9280  0.00  0.00     0.000 OA
ATOM    138   O  SGN B   7      30.723   9.684  36.7200  0.00  0.00     0.000 OA
ATOM    139   O  SGN B   7      31.158  10.216  39.0590  0.00  0.00     0.000 OA
ENDBRANCH 124 134
BRANCH 120 140
ATOM    140  O4  IDS B   8      35.886  13.374  38.0600  0.00  0.00     0.000 O
BRANCH 140 144
ATOM    141  C1  IDS B   8      35.453  15.579  40.8740  0.00  0.00     0.000 C
ATOM    142  C2  IDS B   8      35.622  16.143  39.4340  0.00  0.00     0.000 C
ATOM    143  C3  IDS B   8      36.811  15.522  38.6780  0.00  0.00     0.000 C
ATOM    144  C4  IDS B   8      36.884  14.008  38.8700  0.00  0.00     0.000 C
ATOM    145  C5  IDS B   8      36.670  13.651  40.3480  0.00  0.00     0.000 C
ATOM    146  O5  IDS B   8      35.431  14.157  40.8390  0.00  0.00     0.000 O
BRANCH 142 147
ATOM    147   O  IDS B   8      34.397  15.854  38.6420  0.00  0.00     0.000 O
ATOM    148   S  IDS B   8      33.244  16.977  38.4470  0.00  0.00     0.000 S
ATOM    149   O  IDS B   8      33.460  18.005  39.4400  0.00  0.00     0.000 OA
ATOM    150   O  IDS B   8      33.405  17.465  37.0900  0.00  0.00     0.000 OA
ATOM    151   O  IDS B   8      31.990  16.278  38.6550  0.00  0.00     0.000 OA
ENDBRANCH 142 147
BRANCH 145 152
ATOM    152   C  IDS B   8      36.633  12.155  40.5870  0.00  0.00     0.000 C
ATOM    153   O  IDS B   8      35.757  11.678  41.2990  0.00  0.00     0.000 OA
ATOM    154   O  IDS B   8      37.462  11.439  40.0530  0.00  0.00     0.000 OA
ENDBRANCH 145 152
ENDBRANCH 140 144
ENDBRANCH 120 140
ENDBRANCH 119 123
ENDBRANCH 103 119
ENDBRANCH 102 106
ENDBRANCH 82 102
ENDBRANCH 81 85
ENDBRANCH 65 81
ENDBRANCH 64 68
ENDBRANCH 41 64
ENDBRANCH 40 44
ENDBRANCH 24 40
ENDBRANCH 23 27
ENDBRANCH 1 23
TORSDOF 31
ENDMDL
MODEL 63
REMARK VINA RESULT:      -6.8      3.608      5.910
ROOT
ATOM      1  C1  SGN B   1      27.276  16.277  12.4970  0.00  0.00     0.000 C
ATOM      2  C2  SGN B   1      28.201  16.633  11.3220  0.00  0.00     0.000 C
ATOM      3  C3  SGN B   1      27.849  18.011  10.7530  0.00  0.00     0.000 C
ATOM      4  C4  SGN B   1      26.377  18.056  10.3550  0.00  0.00     0.000 C
ATOM      5  C5  SGN B   1      25.529  17.556  11.5220  0.00  0.00     0.000 C
ATOM      6  O5  SGN B   1      25.979  16.245  11.9170  0.00  0.00     0.000 O
ATOM      7   O  SGN B   1      28.677  18.318   9.6370  0.00  0.00     0.000 O
ATOM      9  HD  SGN B   1      28.269  17.605   9.3630  0.00  0.00     0.000 HD
ATOM      9   O  SGN B   1      26.019  19.386  10.0250  0.00  0.00     0.000 O
ATOM     11  HD  SGN B   1      25.611  18.673   9.7510  0.00  0.00     0.000 HD
ENDROOT
BRANCH 2 13
ATOM     11   N  SGN B   1      29.078  15.450  11.2390  0.00  0.00     0.000 N
ATOM     13  HD  SGN B   1      28.977  15.871  11.9890  0.00  0.00     0.000 HD
ATOM     13   S  SGN B   1      30.347  15.252  12.2080  0.00  0.00     0.000 S
ATOM     14   O  SGN B   1      30.429  16.320  13.1260  0.00  0.00     0.000 OA
ATOM     15   O  SGN B   1      30.340  13.912  12.6920  0.00  0.00     0.000 OA
ATOM     16   O  SGN B   1      31.469  15.345  11.1280  0.00  0.00     0.000 OA
ENDBRANCH 2 13
BRANCH 5 17
ATOM     17   C  SGN B   1      24.057  17.450  11.2100  0.00  0.00     0.000 C
ATOM     18   O  SGN B   1      23.834  17.407   9.7860  0.00  0.00     0.000 O
ATOM     19   S  SGN B   1      22.658  18.339   9.2320  0.00  0.00     0.000 S
ATOM     20   O  SGN B   1      22.485  17.943   7.8500  0.00  0.00     0.000 OA
ATOM     21   O  SGN B   1      21.528  18.017  10.0710  0.00  0.00     0.000 OA
ATOM     22   O  SGN B   1      23.143  19.693   9.3910  0.00  0.00     0.000 OA
ENDBRANCH 5 17
BRANCH 1 23
ATOM     23  O4  IDS B   2      27.197  16.406  13.8530  0.00  0.00     0.000 O
BRANCH 23 27
ATOM     24  C1  IDS B   2      26.857  18.018  17.6630  0.00  0.00     0.000 C
ATOM     25  C2  IDS B   2      26.757  19.029  16.4990  0.00  0.00     0.000 C
ATOM     26  C3  IDS B   2      26.595  18.309  15.1630  0.00  0.00     0.000 C
ATOM     27  C4  IDS B   2      27.685  17.281  14.8910  0.00  0.00     0.000 C
ATOM     28  C5  IDS B   2      28.072  16.564  16.2000  0.00  0.00     0.000 C
ATOM     29  O5  IDS B   2      27.040  16.685  17.1680  0.00  0.00     0.000 O
ATOM     30   O  IDS B   2      26.632  19.264  14.1090  0.00  0.00     0.000 O
ATOM     32  HD  IDS B   2      27.435  19.520  13.9080  0.00  0.00     0.000 HD
BRANCH 25 32
ATOM     32   O  IDS B   2      25.605  19.951  16.6540  0.00  0.00     0.000 O
ATOM     33   S  IDS B   2      25.804  21.585  16.7610  0.00  0.00     0.000 S
ATOM     34   O  IDS B   2      24.506  22.129  17.1270  0.00  0.00     0.000 OA
ATOM     35   O  IDS B   2      26.810  21.885  17.7700  0.00  0.00     0.000 OA
ATOM     36   O  IDS B   2      26.202  22.017  15.4410  0.00  0.00     0.000 OA
ENDBRANCH 25 32
BRANCH 28 37
ATOM     37   C  IDS B   2      28.486  15.081  16.1140  0.00  0.00     0.000 C
ATOM     38   O  IDS B   2      27.553  14.326  16.2620  0.00  0.00     0.000 OA
ATOM     39   O  IDS B   2      29.628  14.629  15.8540  0.00  0.00     0.000 OA
ENDBRANCH 28 37
BRANCH 24 40
ATOM     40  O4  SUS B   3      27.072  18.458  18.9200  0.00  0.00     0.000 O
BRANCH 40 44
ATOM     41  C1  SUS B   3      24.854  16.869  22.0980  0.00  0.00     0.000 C
ATOM     42  C2  SUS B   3      26.349  17.145  22.3510  0.00  0.00     0.000 C
ATOM     43  C3  SUS B   3      26.862  18.133  21.3060  0.00  0.00     0.000 C
ATOM     44  C4  SUS B   3      26.560  17.584  19.9200  0.00  0.00     0.000 C
ATOM     45  C5  SUS B   3      25.060  17.444  19.7640  0.00  0.00     0.000 C
ATOM     46  O5  SUS B   3      24.592  16.493  20.7420  0.00  0.00     0.000 O
BRANCH 42 49
ATOM     47   N  SUS B   3      26.426  16.049  23.3320  0.00  0.00     0.000 N
ATOM     49  HD  SUS B   3      25.673  15.702  23.5840  0.00  0.00     0.000 HD
ATOM     49   S  SUS B   3      27.252  16.451  24.6440  0.00  0.00     0.000 S
ATOM     50   O  SUS B   3      26.673  17.586  25.2470  0.00  0.00     0.000 OA
ATOM     51   O  SUS B   3      26.926  15.173  25.4600  0.00  0.00     0.000 OA
ATOM     52   O  SUS B   3      28.625  16.506  24.3330  0.00  0.00     0.000 OA
ENDBRANCH 42 49
BRANCH 43 53
ATOM     53   O  SUS B   3      28.320  18.269  21.4850  0.00  0.00     0.000 O
ATOM     54   S  SUS B   3      28.876  19.711  22.0450  0.00  0.00     0.000 S
ATOM     55   O  SUS B   3      28.490  19.813  23.4450  0.00  0.00     0.000 OA
ATOM     56   O  SUS B   3      30.311  19.641  21.8360  0.00  0.00     0.000 OA
ATOM     57   O  SUS B   3      28.225  20.748  21.2380  0.00  0.00     0.000 OA
ENDBRANCH 43 53
BRANCH 45 58
ATOM     58   C  SUS B   3      24.674  16.996  18.3710  0.00  0.00     0.000 C
ATOM     59   S  SUS B   3      23.067  15.445  17.1070  0.00  0.00     0.000 S
ATOM     60   O  SUS B   3      23.492  16.181  18.4430  0.00  0.00     0.000 O
ATOM     61   O  SUS B   3      23.963  14.309  16.9980  0.00  0.00     0.000 OA
ATOM     62   O  SUS B   3      21.719  15.061  17.4300  0.00  0.00     0.000 OA
ATOM     63   O  SUS B   3      23.192  16.419  16.0810  0.00  0.00     0.000 OA
ENDBRANCH 45 58
BRANCH 41 64
ATOM     64  O4  IDS B   4      24.021  17.849  22.5800  0.00  0.00     0.000 O
BRANCH 64 68
ATOM     65  C1  IDS B   4      21.043  19.525  23.8450  0.00  0.00     0.000 C
ATOM     66  C2  IDS B   4      22.161  19.104  24.8080  0.00  0.00     0.000 C
ATOM     67  C3  IDS B   4      22.669  17.687  24.5980  0.00  0.00     0.000 C
ATOM     68  C4  IDS B   4      22.796  17.317  23.1330  0.00  0.00     0.000 C
ATOM     69  C5  IDS B   4      21.536  17.805  22.4060  0.00  0.00     0.000 C
ATOM     70  O5  IDS B   4      21.446  19.227  22.5210  0.00  0.00     0.000 O
ATOM     71   O  IDS B   4      21.756  16.816  25.2330  0.00  0.00     0.000 O
ATOM     73  HD  IDS B   4      22.133  17.578  25.0700  0.00  0.00     0.000 HD
BRANCH 66 73
ATOM     73   O  IDS B   4      23.325  19.973  24.5920  0.00  0.00     0.000 O
ATOM     74   S  IDS B   4      23.647  21.100  25.7070  0.00  0.00     0.000 S
ATOM     75   O  IDS B   4      22.453  21.909  25.8300  0.00  0.00     0.000 OA
ATOM     76   O  IDS B   4      24.765  21.791  25.1150  0.00  0.00     0.000 OA
ATOM     77   O  IDS B   4      23.970  20.371  26.9100  0.00  0.00     0.000 OA
ENDBRANCH 66 73
BRANCH 69 78
ATOM     78   C  IDS B   4      21.409  17.318  20.9690  0.00  0.00     0.000 C
ATOM     79   O  IDS B   4      21.542  18.131  20.0550  0.00  0.00     0.000 OA
ATOM     80   O  IDS B   4      21.283  16.097  20.7630  0.00  0.00     0.000 OA
ENDBRANCH 69 78
BRANCH 65 81
ATOM     81  O4  SGN B   5      19.861  18.992  24.2620  0.00  0.00     0.000 O
BRANCH 81 85
ATOM     82  C1  SGN B   5      15.716  19.650  24.4180  0.00  0.00     0.000 C
ATOM     83  C2  SGN B   5      16.330  19.387  23.0340  0.00  0.00     0.000 C
ATOM     84  C3  SGN B   5      17.704  18.724  23.1990  0.00  0.00     0.000 C
ATOM     85  C4  SGN B   5      18.578  19.595  24.0840  0.00  0.00     0.000 C
ATOM     86  C5  SGN B   5      17.879  19.764  25.4310  0.00  0.00     0.000 C
ATOM     87  O5  SGN B   5      16.608  20.407  25.2140  0.00  0.00     0.000 O
ATOM     88   O  SGN B   5      18.298  18.532  21.9340  0.00  0.00     0.000 O
ATOM     90  HD  SGN B   5      17.907  17.918  22.4030  0.00  0.00     0.000 HD
BRANCH 83 92
ATOM     90   N  SGN B   5      15.164  18.702  22.4420  0.00  0.00     0.000 N
ATOM     92  HD  SGN B   5      14.630  18.409  23.0580  0.00  0.00     0.000 HD
ATOM     92   S  SGN B   5      14.444  19.388  21.1910  0.00  0.00     0.000 S
ATOM     93   O  SGN B   5      13.373  18.495  20.8660  0.00  0.00     0.000 OA
ATOM     94   O  SGN B   5      14.163  20.723  21.5920  0.00  0.00     0.000 OA
ATOM     95   O  SGN B   5      15.512  19.453  20.1210  0.00  0.00     0.000 OA
ENDBRANCH 83 92
BRANCH 86 96
ATOM     96   C  SGN B   5      18.647  20.607  26.4280  0.00  0.00     0.000 C
ATOM     97   O  SGN B   5      18.559  20.040  27.7370  0.00  0.00     0.000 O
ATOM     98   S  SGN B   5      19.948  19.834  28.5120  0.00  0.00     0.000 S
ATOM     99   O  SGN B   5      19.520  19.454  29.8370  0.00  0.00     0.000 OA
ATOM    100   O  SGN B   5      20.680  18.837  27.8170  0.00  0.00     0.000 OA
ATOM    101   O  SGN B   5      20.573  21.116  28.4660  0.00  0.00     0.000 OA
ENDBRANCH 86 96
BRANCH 82 102
ATOM    102  O4  IDS B   6      15.363  18.501  25.0610  0.00  0.00     0.000 O
BRANCH 102 106
ATOM    103  C1  IDS B   6      12.792  16.703  26.9090  0.00  0.00     0.000 C
ATOM    104  C2  IDS B   6      12.417  17.839  25.9430  0.00  0.00     0.000 C
ATOM    105  C3  IDS B   6      13.240  19.104  26.0890  0.00  0.00     0.000 C
ATOM    106  C4  IDS B   6      14.714  18.823  26.3180  0.00  0.00     0.000 C
ATOM    107  C5  IDS B   6      14.872  17.676  27.3210  0.00  0.00     0.000 C
ATOM    108  O5  IDS B   6      14.191  16.496  26.8930  0.00  0.00     0.000 O
ATOM    109   O  IDS B   6      12.700  19.861  27.1600  0.00  0.00     0.000 O
ATOM    111  HD  IDS B   6      12.282  19.273  27.6400  0.00  0.00     0.000 HD
BRANCH 104 111
ATOM    111   O  IDS B   6      12.642  17.387  24.5620  0.00  0.00     0.000 O
ATOM    112   S  IDS B   6      11.385  16.842  23.7340  0.00  0.00     0.000 S
ATOM    113   O  IDS B   6      10.880  15.730  24.5240  0.00  0.00     0.000 OA
ATOM    114   O  IDS B   6      10.435  17.946  23.5530  0.00  0.00     0.000 OA
ATOM    115   O  IDS B   6      12.061  16.441  22.5190  0.00  0.00     0.000 OA
ENDBRANCH 104 111
BRANCH 107 116
ATOM    116   C  IDS B   6      16.353  17.378  27.5160  0.00  0.00     0.000 C
ATOM    117   O  IDS B   6      16.926  16.853  26.5940  0.00  0.00     0.000 OA
ATOM    118   O  IDS B   6      16.924  17.649  28.5600  0.00  0.00     0.000 OA
ENDBRANCH 107 116
BRANCH 103 119
ATOM    119  O4  SGN B   7      12.139  17.027  28.0540  0.00  0.00     0.000 O
BRANCH 119 123
ATOM    120  C1  SGN B   7      10.574  14.973  31.3440  0.00  0.00     0.000 C
ATOM    121  C2  SGN B   7      12.106  15.004  31.1850  0.00  0.00     0.000 C
ATOM    122  C3  SGN B   7      12.522  16.103  30.1990  0.00  0.00     0.000 C
ATOM    123  C4  SGN B   7      11.771  15.929  28.8890  0.00  0.00     0.000 C
ATOM    124  C5  SGN B   7      10.257  15.903  29.1550  0.00  0.00     0.000 C
ATOM    125  O5  SGN B   7       9.911  14.854  30.0870  0.00  0.00     0.000 O
ATOM    126   O  SGN B   7      13.939  16.039  30.0000  0.00  0.00     0.000 O
ATOM    128  HD  SGN B   7      13.246  15.776  30.4490  0.00  0.00     0.000 HD
BRANCH 121 130
ATOM    128   N  SGN B   7      12.150  14.769  32.6310  0.00  0.00     0.000 N
ATOM    130  HD  SGN B   7      11.968  13.931  32.5070  0.00  0.00     0.000 HD
ATOM    130   S  SGN B   7      13.364  13.980  33.3360  0.00  0.00     0.000 S
ATOM    131   O  SGN B   7      14.546  14.608  32.8530  0.00  0.00     0.000 OA
ATOM    132   O  SGN B   7      13.104  13.916  34.7290  0.00  0.00     0.000 OA
ATOM    133   O  SGN B   7      13.095  12.528  32.8160  0.00  0.00     0.000 OA
ENDBRANCH 121 130
BRANCH 124 134
ATOM    134   C  SGN B   7       9.431  15.619  27.9340  0.00  0.00     0.000 C
ATOM    135   O  SGN B   7       8.203  16.359  28.0300  0.00  0.00     0.000 O
ATOM    136   S  SGN B   7       7.261  16.318  26.7740  0.00  0.00     0.000 S
ATOM    137   O  SGN B   7       6.063  17.035  27.1400  0.00  0.00     0.000 OA
ATOM    138   O  SGN B   7       7.025  14.914  26.5240  0.00  0.00     0.000 OA
ATOM    139   O  SGN B   7       8.063  16.984  25.7590  0.00  0.00     0.000 OA
ENDBRANCH 124 134
BRANCH 120 140
ATOM    140  O4  IDS B   8       9.786  15.894  31.9100  0.00  0.00     0.000 O
BRANCH 140 144
ATOM    141  C1  IDS B   8       7.787  17.240  34.5840  0.00  0.00     0.000 C
ATOM    142  C2  IDS B   8       7.840  15.709  34.3180  0.00  0.00     0.000 C
ATOM    143  C3  IDS B   8       7.621  15.346  32.8370  0.00  0.00     0.000 C
ATOM    144  C4  IDS B   8       8.402  16.266  31.9010  0.00  0.00     0.000 C
ATOM    145  C5  IDS B   8       8.246  17.729  32.3430  0.00  0.00     0.000 C
ATOM    146  O5  IDS B   8       8.663  17.919  33.6930  0.00  0.00     0.000 O
BRANCH 142 147
ATOM    147   O  IDS B   8       9.175  15.183  34.7060  0.00  0.00     0.000 O
ATOM    148   S  IDS B   8       9.357  13.649  35.2030  0.00  0.00     0.000 S
ATOM    149   O  IDS B   8       8.047  13.140  35.5420  0.00  0.00     0.000 OA
ATOM    150   O  IDS B   8       9.959  12.949  34.0840  0.00  0.00     0.000 OA
ATOM    151   O  IDS B   8      10.226  13.724  36.3620  0.00  0.00     0.000 OA
ENDBRANCH 142 147
BRANCH 145 152
ATOM    152   C  IDS B   8       9.080  18.682  31.5110  0.00  0.00     0.000 C
ATOM    153   O  IDS B   8      10.066  19.215  32.0080  0.00  0.00     0.000 OA
ATOM    154   O  IDS B   8       8.774  18.893  30.3510  0.00  0.00     0.000 OA
ENDBRANCH 145 152
ENDBRANCH 140 144
ENDBRANCH 120 140
ENDBRANCH 119 123
ENDBRANCH 103 119
ENDBRANCH 102 106
ENDBRANCH 82 102
ENDBRANCH 81 85
ENDBRANCH 65 81
ENDBRANCH 64 68
ENDBRANCH 41 64
ENDBRANCH 40 44
ENDBRANCH 24 40
ENDBRANCH 23 27
ENDBRANCH 1 23
TORSDOF 31
ENDMDL
MODEL 64
REMARK VINA RESULT:      -6.8      8.533     23.828
ROOT
ATOM      1  C1  SGN B   1      20.000  19.414  22.7130  0.00  0.00     0.000 C
ATOM      2  C2  SGN B   1      19.970  19.424  24.2500  0.00  0.00     0.000 C
ATOM      3  C3  SGN B   1      18.760  18.643  24.7740  0.00  0.00     0.000 C
ATOM      4  C4  SGN B   1      17.474  19.199  24.1740  0.00  0.00     0.000 C
ATOM      5  C5  SGN B   1      17.629  19.292  22.6580  0.00  0.00     0.000 C
ATOM      6  O5  SGN B   1      18.797  20.073  22.3410  0.00  0.00     0.000 O
ATOM      7   O  SGN B   1      18.711  18.692  26.1950  0.00  0.00     0.000 O
ATOM      9  HD  SGN B   1      18.644  19.530  25.9870  0.00  0.00     0.000 HD
ATOM      9   O  SGN B   1      16.393  18.346  24.5030  0.00  0.00     0.000 O
ATOM     11  HD  SGN B   1      16.326  19.184  24.2950  0.00  0.00     0.000 HD
ENDROOT
BRANCH 2 13
ATOM     11   N  SGN B   1      21.165  20.189  24.6540  0.00  0.00     0.000 N
ATOM     13  HD  SGN B   1      21.224  19.562  24.0600  0.00  0.00     0.000 HD
ATOM     13   S  SGN B   1      22.646  19.564  24.5960  0.00  0.00     0.000 S
ATOM     14   O  SGN B   1      22.600  18.256  24.0690  0.00  0.00     0.000 OA
ATOM     15   O  SGN B   1      23.517  20.525  24.0080  0.00  0.00     0.000 OA
ATOM     16   O  SGN B   1      22.943  19.549  26.1270  0.00  0.00     0.000 OA
ENDBRANCH 2 13
BRANCH 5 17
ATOM     17   C  SGN B   1      16.456  19.934  21.9590  0.00  0.00     0.000 C
ATOM     18   O  SGN B   1      16.803  20.309  20.6110  0.00  0.00     0.000 O
ATOM     19   S  SGN B   1      16.338  21.767  20.1460  0.00  0.00     0.000 S
ATOM     20   O  SGN B   1      16.589  21.804  18.7210  0.00  0.00     0.000 OA
ATOM     21   O  SGN B   1      14.936  21.815  20.4890  0.00  0.00     0.000 OA
ATOM     22   O  SGN B   1      17.161  22.684  20.9040  0.00  0.00     0.000 OA
ENDBRANCH 5 17
BRANCH 1 23
ATOM     23  O4  IDS B   2      20.492  18.680  21.6740  0.00  0.00     0.000 O
BRANCH 23 27
ATOM     24  C1  IDS B   2      23.156  18.918  18.4990  0.00  0.00     0.000 C
ATOM     25  C2  IDS B   2      22.291  20.175  18.7400  0.00  0.00     0.000 C
ATOM     26  C3  IDS B   2      21.577  20.096  20.0870  0.00  0.00     0.000 C
ATOM     27  C4  IDS B   2      20.748  18.831  20.2620  0.00  0.00     0.000 C
ATOM     28  C5  IDS B   2      21.471  17.633  19.6130  0.00  0.00     0.000 C
ATOM     29  O5  IDS B   2      22.857  17.898  19.4620  0.00  0.00     0.000 O
ATOM     30   O  IDS B   2      20.698  21.207  20.2160  0.00  0.00     0.000 O
ATOM     32  HD  IDS B   2      19.955  21.107  19.7830  0.00  0.00     0.000 HD
BRANCH 25 32
ATOM     32   O  IDS B   2      23.097  21.420  18.7330  0.00  0.00     0.000 O
ATOM     33   S  IDS B   2      22.710  22.703  17.7700  0.00  0.00     0.000 S
ATOM     34   O  IDS B   2      23.829  23.629  17.8590  0.00  0.00     0.000 OA
ATOM     35   O  IDS B   2      22.511  22.240  16.4030  0.00  0.00     0.000 OA
ATOM     36   O  IDS B   2      21.510  23.270  18.3390  0.00  0.00     0.000 OA
ENDBRANCH 25 32
BRANCH 28 37
ATOM     37   C  IDS B   2      21.310  16.250  20.2750  0.00  0.00     0.000 C
ATOM     38   O  IDS B   2      20.357  15.637  19.8540  0.00  0.00     0.000 OA
ATOM     39   O  IDS B   2      22.079  15.720  21.1140  0.00  0.00     0.000 OA
ENDBRANCH 28 37
BRANCH 24 40
ATOM     40  O4  SUS B   3      23.814  18.768  17.3310  0.00  0.00     0.000 O
BRANCH 40 44
ATOM     41  C1  SUS B   3      27.653  17.249  16.6240  0.00  0.00     0.000 C
ATOM     42  C2  SUS B   3      26.480  16.250  16.5780  0.00  0.00     0.000 C
ATOM     43  C3  SUS B   3      25.175  17.015  16.3740  0.00  0.00     0.000 C
ATOM     44  C4  SUS B   3      25.047  18.069  17.4630  0.00  0.00     0.000 C
ATOM     45  C5  SUS B   3      26.204  19.039  17.3440  0.00  0.00     0.000 C
ATOM     46  O5  SUS B   3      27.428  18.309  17.5610  0.00  0.00     0.000 O
BRANCH 42 49
ATOM     47   N  SUS B   3      26.161  14.859  16.9460  0.00  0.00     0.000 N
ATOM     49  HD  SUS B   3      26.154  14.674  17.7920  0.00  0.00     0.000 HD
ATOM     49   S  SUS B   3      27.106  13.794  16.2110  0.00  0.00     0.000 S
ATOM     50   O  SUS B   3      28.457  14.065  16.5100  0.00  0.00     0.000 OA
ATOM     51   O  SUS B   3      26.613  12.549  16.9920  0.00  0.00     0.000 OA
ATOM     52   O  SUS B   3      26.742  13.706  14.8530  0.00  0.00     0.000 OA
ENDBRANCH 42 49
BRANCH 43 53
ATOM     53   O  SUS B   3      24.062  16.051  16.4760  0.00  0.00     0.000 O
ATOM     54   S  SUS B   3      23.219  15.731  15.1010  0.00  0.00     0.000 S
ATOM     55   O  SUS B   3      24.085  14.948  14.2300  0.00  0.00     0.000 OA
ATOM     56   O  SUS B   3      22.049  15.009  15.5660  0.00  0.00     0.000 OA
ATOM     57   O  SUS B   3      22.897  17.029  14.5010  0.00  0.00     0.000 OA
ENDBRANCH 43 53
BRANCH 45 58
ATOM     58   C  SUS B   3      26.092  20.178  18.3330  0.00  0.00     0.000 C
ATOM     59   S  SUS B   3      26.427  20.759  20.8100  0.00  0.00     0.000 S
ATOM     60   O  SUS B   3      26.652  19.771  19.5930  0.00  0.00     0.000 O
ATOM     61   O  SUS B   3      25.058  20.534  21.2340  0.00  0.00     0.000 OA
ATOM     62   O  SUS B   3      27.390  20.250  21.7500  0.00  0.00     0.000 OA
ATOM     63   O  SUS B   3      26.701  22.057  20.3020  0.00  0.00     0.000 OA
ENDBRANCH 45 58
BRANCH 41 64
ATOM     64  O4  IDS B   4      28.067  17.674  15.3850  0.00  0.00     0.000 O
BRANCH 64 68
ATOM     65  C1  IDS B   4      30.184  18.859  12.6670  0.00  0.00     0.000 C
ATOM     66  C2  IDS B   4      29.944  17.356  12.8590  0.00  0.00     0.000 C
ATOM     67  C3  IDS B   4      30.092  16.875  14.2930  0.00  0.00     0.000 C
ATOM     68  C4  IDS B   4      29.500  17.841  15.3030  0.00  0.00     0.000 C
ATOM     69  C5  IDS B   4      29.928  19.262  14.9130  0.00  0.00     0.000 C
ATOM     70  O5  IDS B   4      29.411  19.570  13.6160  0.00  0.00     0.000 O
ATOM     71   O  IDS B   4      31.473  16.714  14.5400  0.00  0.00     0.000 O
ATOM     73  HD  IDS B   4      30.767  16.802  14.0480  0.00  0.00     0.000 HD
BRANCH 66 73
ATOM     73   O  IDS B   4      28.557  17.047  12.4840  0.00  0.00     0.000 O
ATOM     74   S  IDS B   4      28.274  16.548  10.9720  0.00  0.00     0.000 S
ATOM     75   O  IDS B   4      28.796  17.576  10.0970  0.00  0.00     0.000 OA
ATOM     76   O  IDS B   4      26.836  16.442  10.9590  0.00  0.00     0.000 OA
ATOM     77   O  IDS B   4      28.964  15.286  10.8470  0.00  0.00     0.000 OA
ENDBRANCH 66 73
BRANCH 69 78
ATOM     78   C  IDS B   4      29.597  20.326  15.9500  0.00  0.00     0.000 C
ATOM     79   O  IDS B   4      30.221  20.331  17.0110  0.00  0.00     0.000 OA
ATOM     80   O  IDS B   4      28.783  21.218  15.6500  0.00  0.00     0.000 OA
ENDBRANCH 69 78
BRANCH 65 81
ATOM     81  O4  SGN B   5      31.524  19.106  12.6580  0.00  0.00     0.000 O
BRANCH 81 85
ATOM     82  C1  SGN B   5      34.360  21.379  10.5530  0.00  0.00     0.000 C
ATOM     83  C2  SGN B   5      34.055  21.806  11.9970  0.00  0.00     0.000 C
ATOM     84  C3  SGN B   5      33.390  20.643  12.7470  0.00  0.00     0.000 C
ATOM     85  C4  SGN B   5      32.156  20.196  11.9840  0.00  0.00     0.000 C
ATOM     86  C5  SGN B   5      32.586  19.776  10.5800  0.00  0.00     0.000 C
ATOM     87  O5  SGN B   5      33.183  20.910   9.9220  0.00  0.00     0.000 O
ATOM     88   O  SGN B   5      33.056  21.047  14.0570  0.00  0.00     0.000 O
ATOM     90  HD  SGN B   5      33.739  20.561  13.8400  0.00  0.00     0.000 HD
BRANCH 83 92
ATOM     90   N  SGN B   5      35.082  22.786  11.5920  0.00  0.00     0.000 N
ATOM     92  HD  SGN B   5      34.917  23.099  10.8010  0.00  0.00     0.000 HD
ATOM     92   S  SGN B   5      35.549  23.872  12.6660  0.00  0.00     0.000 S
ATOM     93   O  SGN B   5      36.525  24.659  11.9740  0.00  0.00     0.000 OA
ATOM     94   O  SGN B   5      34.355  24.479  13.1470  0.00  0.00     0.000 OA
ATOM     95   O  SGN B   5      36.133  23.062  13.8030  0.00  0.00     0.000 OA
ENDBRANCH 83 92
BRANCH 86 96
ATOM     96   C  SGN B   5      31.451  19.291   9.7020  0.00  0.00     0.000 C
ATOM     97   O  SGN B   5      30.724  20.399   9.1640  0.00  0.00     0.000 O
ATOM     98   S  SGN B   5      30.490  20.385   7.5780  0.00  0.00     0.000 S
ATOM     99   O  SGN B   5      29.579  21.487   7.3810  0.00  0.00     0.000 OA
ATOM    100   O  SGN B   5      31.756  20.545   6.9580  0.00  0.00     0.000 OA
ATOM    101   O  SGN B   5      29.901  19.112   7.3170  0.00  0.00     0.000 OA
ENDBRANCH 86 96
BRANCH 82 102
ATOM    102  O4  IDS B   6      35.344  20.439  10.4810  0.00  0.00     0.000 O
BRANCH 102 106
ATOM    103  C1  IDS B   6      38.485  19.142   9.1730  0.00  0.00     0.000 C
ATOM    104  C2  IDS B   6      38.301  20.646   9.4280  0.00  0.00     0.000 C
ATOM    105  C3  IDS B   6      37.010  21.236   8.8930  0.00  0.00     0.000 C
ATOM    106  C4  IDS B   6      35.815  20.326   9.1140  0.00  0.00     0.000 C
ATOM    107  C5  IDS B   6      36.199  18.879   8.7880  0.00  0.00     0.000 C
ATOM    108  O5  IDS B   6      37.319  18.439   9.5570  0.00  0.00     0.000 O
ATOM    109   O  IDS B   6      37.188  21.509   7.5130  0.00  0.00     0.000 O
ATOM    111  HD  IDS B   6      37.832  20.980   7.2770  0.00  0.00     0.000 HD
BRANCH 104 111
ATOM    111   O  IDS B   6      38.267  20.886  10.8790  0.00  0.00     0.000 O
ATOM    112   S  IDS B   6      39.391  21.833  11.5130  0.00  0.00     0.000 S
ATOM    113   O  IDS B   6      40.649  21.190  11.1650  0.00  0.00     0.000 OA
ATOM    114   O  IDS B   6      39.222  23.184  10.9670  0.00  0.00     0.000 OA
ATOM    115   O  IDS B   6      39.037  21.713  12.9100  0.00  0.00     0.000 OA
ENDBRANCH 104 111
BRANCH 107 116
ATOM    116   C  IDS B   6      35.004  17.970   9.0470  0.00  0.00     0.000 C
ATOM    117   O  IDS B   6      34.996  17.370  10.0920  0.00  0.00     0.000 OA
ATOM    118   O  IDS B   6      34.107  17.852   8.2280  0.00  0.00     0.000 OA
ENDBRANCH 107 116
BRANCH 103 119
ATOM    119  O4  SGN B   7      38.956  19.087   7.9010  0.00  0.00     0.000 O
BRANCH 119 123
ATOM    120  C1  SGN B   7      41.586  16.661   5.7350  0.00  0.00     0.000 C
ATOM    121  C2  SGN B   7      40.232  16.054   6.1490  0.00  0.00     0.000 C
ATOM    122  C3  SGN B   7      39.251  17.158   6.5610  0.00  0.00     0.000 C
ATOM    123  C4  SGN B   7      39.884  18.036   7.6280  0.00  0.00     0.000 C
ATOM    124  C5  SGN B   7      41.227  18.586   7.1230  0.00  0.00     0.000 C
ATOM    125  O5  SGN B   7      42.119  17.513   6.7480  0.00  0.00     0.000 O
ATOM    126   O  SGN B   7      38.041  16.554   7.0330  0.00  0.00     0.000 O
ATOM    128  HD  SGN B   7      38.806  16.458   6.6380  0.00  0.00     0.000 HD
BRANCH 121 130
ATOM    128   N  SGN B   7      40.403  15.145   5.0130  0.00  0.00     0.000 N
ATOM    130  HD  SGN B   7      40.986  14.685   5.4590  0.00  0.00     0.000 HD
ATOM    130   S  SGN B   7      39.820  13.643   5.0190  0.00  0.00     0.000 S
ATOM    131   O  SGN B   7      38.458  13.774   5.4080  0.00  0.00     0.000 OA
ATOM    132   O  SGN B   7      40.158  13.029   3.7860  0.00  0.00     0.000 OA
ATOM    133   O  SGN B   7      40.773  12.976   6.0670  0.00  0.00     0.000 OA
ENDBRANCH 121 130
BRANCH 124 134
ATOM    134   C  SGN B   7      41.986  19.373   8.1500  0.00  0.00     0.000 C
ATOM    135   O  SGN B   7      43.307  18.818   8.2690  0.00  0.00     0.000 O
ATOM    136   S  SGN B   7      44.314  19.598   9.1880  0.00  0.00     0.000 S
ATOM    137   O  SGN B   7      45.520  18.805   9.2340  0.00  0.00     0.000 OA
ATOM    138   O  SGN B   7      43.656  19.700  10.4700  0.00  0.00     0.000 OA
ATOM    139   O  SGN B   7      44.464  20.863   8.4850  0.00  0.00     0.000 OA
ENDBRANCH 124 134
BRANCH 120 140
ATOM    140  O4  IDS B   8      41.856  17.415   4.6640  0.00  0.00     0.000 O
BRANCH 140 144
ATOM    141  C1  IDS B   8      42.007  19.652   1.8480  0.00  0.00     0.000 C
ATOM    142  C2  IDS B   8      41.209  18.320   1.7690  0.00  0.00     0.000 C
ATOM    143  C3  IDS B   8      42.011  17.105   2.2700  0.00  0.00     0.000 C
ATOM    144  C4  IDS B   8      42.770  17.413   3.5600  0.00  0.00     0.000 C
ATOM    145  C5  IDS B   8      43.469  18.776   3.4510  0.00  0.00     0.000 C
ATOM    146  O5  IDS B   8      42.545  19.820   3.1540  0.00  0.00     0.000 O
BRANCH 142 147
ATOM    147   O  IDS B   8      39.990  18.422   2.6130  0.00  0.00     0.000 O
ATOM    148   S  IDS B   8      38.643  17.598   2.2410  0.00  0.00     0.000 S
ATOM    149   O  IDS B   8      38.761  17.164   0.8670  0.00  0.00     0.000 OA
ATOM    150   O  IDS B   8      38.595  16.491   3.1780  0.00  0.00     0.000 OA
ATOM    151   O  IDS B   8      37.556  18.542   2.4190  0.00  0.00     0.000 OA
ENDBRANCH 142 147
BRANCH 145 152
ATOM    152   C  IDS B   8      44.158  19.183   4.7370  0.00  0.00     0.000 C
ATOM    153   O  IDS B   8      43.873  20.252   5.2640  0.00  0.00     0.000 OA
ATOM    154   O  IDS B   8      44.974  18.435   5.2460  0.00  0.00     0.000 OA
ENDBRANCH 145 152
ENDBRANCH 140 144
ENDBRANCH 120 140
ENDBRANCH 119 123
ENDBRANCH 103 119
ENDBRANCH 102 106
ENDBRANCH 82 102
ENDBRANCH 81 85
ENDBRANCH 65 81
ENDBRANCH 64 68
ENDBRANCH 41 64
ENDBRANCH 40 44
ENDBRANCH 24 40
ENDBRANCH 23 27
ENDBRANCH 1 23
TORSDOF 31
ENDMDL
MODEL 65
REMARK VINA RESULT:      -6.8      6.952     18.907
ROOT
ATOM      1  C1  SGN B   1      25.393  19.208  30.0460  0.00  0.00     0.000 C
ATOM      2  C2  SGN B   1      23.905  18.832  30.1410  0.00  0.00     0.000 C
ATOM      3  C3  SGN B   1      23.194  19.090  28.8080  0.00  0.00     0.000 C
ATOM      4  C4  SGN B   1      23.390  20.541  28.3800  0.00  0.00     0.000 C
ATOM      5  C5  SGN B   1      24.876  20.884  28.4450  0.00  0.00     0.000 C
ATOM      6  O5  SGN B   1      25.378  20.601  29.7660  0.00  0.00     0.000 O
ATOM      7   O  SGN B   1      21.809  18.783  28.9130  0.00  0.00     0.000 O
ATOM      9  HD  SGN B   1      21.895  19.413  29.5020  0.00  0.00     0.000 HD
ATOM      9   O  SGN B   1      22.907  20.710  27.0600  0.00  0.00     0.000 O
ATOM     11  HD  SGN B   1      22.993  21.340  27.6480  0.00  0.00     0.000 HD
ENDROOT
BRANCH 2 13
ATOM     11   N  SGN B   1      23.783  18.354  31.5310  0.00  0.00     0.000 N
ATOM     13  HD  SGN B   1      24.390  18.029  31.0060  0.00  0.00     0.000 HD
ATOM     13   S  SGN B   1      24.215  16.868  31.9700  0.00  0.00     0.000 S
ATOM     14   O  SGN B   1      24.747  16.171  30.8650  0.00  0.00     0.000 OA
ATOM     15   O  SGN B   1      24.972  16.955  33.1740  0.00  0.00     0.000 OA
ATOM     16   O  SGN B   1      22.802  16.329  32.3540  0.00  0.00     0.000 OA
ENDBRANCH 2 13
BRANCH 5 17
ATOM     17   C  SGN B   1      25.186  22.331  28.1470  0.00  0.00     0.000 C
ATOM     18   O  SGN B   1      24.200  23.200  28.7390  0.00  0.00     0.000 O
ATOM     19   S  SGN B   1      23.648  24.374  27.8030  0.00  0.00     0.000 S
ATOM     20   O  SGN B   1      22.875  25.224  28.6840  0.00  0.00     0.000 OA
ATOM     21   O  SGN B   1      24.841  25.006  27.2900  0.00  0.00     0.000 OA
ATOM     22   O  SGN B   1      22.853  23.709  26.7940  0.00  0.00     0.000 OA
ENDBRANCH 5 17
BRANCH 1 23
ATOM     23  O4  IDS B   2      26.599  18.662  29.7210  0.00  0.00     0.000 O
BRANCH 23 27
ATOM     24  C1  IDS B   2      27.211  18.382  25.6250  0.00  0.00     0.000 C
ATOM     25  C2  IDS B   2      26.589  17.136  26.2940  0.00  0.00     0.000 C
ATOM     26  C3  IDS B   2      26.137  17.448  27.7170  0.00  0.00     0.000 C
ATOM     27  C4  IDS B   2      27.238  18.034  28.5900  0.00  0.00     0.000 C
ATOM     28  C5  IDS B   2      28.127  18.978  27.7550  0.00  0.00     0.000 C
ATOM     29  O5  IDS B   2      27.445  19.417  26.5890  0.00  0.00     0.000 O
ATOM     30   O  IDS B   2      25.687  16.251  28.3390  0.00  0.00     0.000 O
ATOM     32  HD  IDS B   2      26.333  15.749  28.6230  0.00  0.00     0.000 HD
BRANCH 25 32
ATOM     32   O  IDS B   2      25.410  16.629  25.5490  0.00  0.00     0.000 O
ATOM     33   S  IDS B   2      25.477  15.253  24.6410  0.00  0.00     0.000 S
ATOM     34   O  IDS B   2      24.230  15.199  23.8950  0.00  0.00     0.000 OA
ATOM     35   O  IDS B   2      26.628  15.316  23.7510  0.00  0.00     0.000 OA
ATOM     36   O  IDS B   2      25.572  14.166  25.5880  0.00  0.00     0.000 OA
ENDBRANCH 25 32
BRANCH 28 37
ATOM     37   C  IDS B   2      28.728  20.212  28.4590  0.00  0.00     0.000 C
ATOM     38   O  IDS B   2      28.420  21.251  27.9240  0.00  0.00     0.000 OA
ATOM     39   O  IDS B   2      29.412  20.222  29.5110  0.00  0.00     0.000 OA
ENDBRANCH 28 37
BRANCH 24 40
ATOM     40  O4  SUS B   3      27.734  18.289  24.3850  0.00  0.00     0.000 O
BRANCH 40 44
ATOM     41  C1  SUS B   3      27.826  21.091  21.2730  0.00  0.00     0.000 C
ATOM     42  C2  SUS B   3      28.838  21.279  22.4210  0.00  0.00     0.000 C
ATOM     43  C3  SUS B   3      28.992  19.961  23.1760  0.00  0.00     0.000 C
ATOM     44  C4  SUS B   3      27.620  19.492  23.6320  0.00  0.00     0.000 C
ATOM     45  C5  SUS B   3      26.752  19.256  22.4140  0.00  0.00     0.000 C
ATOM     46  O5  SUS B   3      26.596  20.512  21.7220  0.00  0.00     0.000 O
BRANCH 42 49
ATOM     47   N  SUS B   3      28.843  22.740  22.2320  0.00  0.00     0.000 N
ATOM     49  HD  SUS B   3      28.451  23.040  21.5190  0.00  0.00     0.000 HD
ATOM     49   S  SUS B   3      30.316  23.366  22.2890  0.00  0.00     0.000 S
ATOM     50   O  SUS B   3      31.134  22.759  21.3140  0.00  0.00     0.000 OA
ATOM     51   O  SUS B   3      29.920  24.800  21.8550  0.00  0.00     0.000 OA
ATOM     52   O  SUS B   3      30.775  23.358  23.6220  0.00  0.00     0.000 OA
ENDBRANCH 42 49
BRANCH 43 53
ATOM     53   O  SUS B   3      29.854  20.207  24.3480  0.00  0.00     0.000 O
ATOM     54   S  SUS B   3      31.351  19.526  24.3340  0.00  0.00     0.000 S
ATOM     55   O  SUS B   3      32.146  20.241  23.3460  0.00  0.00     0.000 OA
ATOM     56   O  SUS B   3      31.824  19.691  25.6970  0.00  0.00     0.000 OA
ATOM     57   O  SUS B   3      31.165  18.123  23.9530  0.00  0.00     0.000 OA
ENDBRANCH 43 53
BRANCH 45 58
ATOM     58   C  SUS B   3      25.398  18.691  22.7830  0.00  0.00     0.000 C
ATOM     59   S  SUS B   3      23.182  19.302  23.9230  0.00  0.00     0.000 S
ATOM     60   O  SUS B   3      24.562  19.746  23.2850  0.00  0.00     0.000 O
ATOM     61   O  SUS B   3      23.516  18.805  25.2440  0.00  0.00     0.000 OA
ATOM     62   O  SUS B   3      22.487  20.561  23.9620  0.00  0.00     0.000 OA
ATOM     63   O  SUS B   3      22.643  18.339  23.0290  0.00  0.00     0.000 OA
ENDBRANCH 45 58
BRANCH 41 64
ATOM     64  O4  IDS B   4      28.357  20.487  20.1600  0.00  0.00     0.000 O
BRANCH 64 68
ATOM     65  C1  IDS B   4      28.872  19.434  16.7100  0.00  0.00     0.000 C
ATOM     66  C2  IDS B   4      29.389  20.797  17.1860  0.00  0.00     0.000 C
ATOM     67  C3  IDS B   4      28.385  21.601  17.9950  0.00  0.00     0.000 C
ATOM     68  C4  IDS B   4      27.589  20.748  18.9640  0.00  0.00     0.000 C
ATOM     69  C5  IDS B   4      27.151  19.474  18.2300  0.00  0.00     0.000 C
ATOM     70  O5  IDS B   4      28.310  18.748  17.8140  0.00  0.00     0.000 O
ATOM     71   O  IDS B   4      27.510  22.224  17.0770  0.00  0.00     0.000 O
ATOM     73  HD  IDS B   4      28.235  21.820  17.3230  0.00  0.00     0.000 HD
BRANCH 66 73
ATOM     73   O  IDS B   4      30.532  20.582  18.0850  0.00  0.00     0.000 O
ATOM     74   S  IDS B   4      31.969  21.176  17.6380  0.00  0.00     0.000 S
ATOM     75   O  IDS B   4      32.260  20.611  16.3380  0.00  0.00     0.000 OA
ATOM     76   O  IDS B   4      32.828  20.696  18.6920  0.00  0.00     0.000 OA
ATOM     77   O  IDS B   4      31.803  22.610  17.6140  0.00  0.00     0.000 OA
ENDBRANCH 66 73
BRANCH 69 78
ATOM     78   C  IDS B   4      26.158  18.614  18.9990  0.00  0.00     0.000 C
ATOM     79   O  IDS B   4      24.973  18.945  19.0090  0.00  0.00     0.000 OA
ATOM     80   O  IDS B   4      26.557  17.548  19.5030  0.00  0.00     0.000 OA
ENDBRANCH 69 78
BRANCH 65 81
ATOM     81  O4  SGN B   5      28.070  19.608  15.6230  0.00  0.00     0.000 O
BRANCH 81 85
ATOM     82  C1  SGN B   5      26.347  17.644  12.3350  0.00  0.00     0.000 C
ATOM     83  C2  SGN B   5      25.820  17.267  13.7280  0.00  0.00     0.000 C
ATOM     84  C3  SGN B   5      26.194  18.364  14.7330  0.00  0.00     0.000 C
ATOM     85  C4  SGN B   5      27.697  18.581  14.7010  0.00  0.00     0.000 C
ATOM     86  C5  SGN B   5      28.095  18.972  13.2800  0.00  0.00     0.000 C
ATOM     87  O5  SGN B   5      27.738  17.899  12.3890  0.00  0.00     0.000 O
ATOM     88   O  SGN B   5      25.764  17.998  16.0260  0.00  0.00     0.000 O
ATOM     90  HD  SGN B   5      25.365  18.563  15.5050  0.00  0.00     0.000 HD
BRANCH 83 92
ATOM     90   N  SGN B   5      24.404  16.992  13.4160  0.00  0.00     0.000 N
ATOM     92  HD  SGN B   5      24.154  17.418  12.7040  0.00  0.00     0.000 HD
ATOM     92   S  SGN B   5      23.891  15.482  13.5160  0.00  0.00     0.000 S
ATOM     93   O  SGN B   5      22.508  15.552  13.1530  0.00  0.00     0.000 OA
ATOM     94   O  SGN B   5      24.796  14.715  12.7300  0.00  0.00     0.000 OA
ATOM     95   O  SGN B   5      24.110  15.096  14.9630  0.00  0.00     0.000 OA
ENDBRANCH 83 92
BRANCH 86 96
ATOM     96   C  SGN B   5      29.577  19.233  13.1000  0.00  0.00     0.000 C
ATOM     97   O  SGN B   5      30.295  18.001  12.9960  0.00  0.00     0.000 O
ATOM     98   S  SGN B   5      31.291  17.868  11.7470  0.00  0.00     0.000 S
ATOM     99   O  SGN B   5      31.995  16.641  12.0310  0.00  0.00     0.000 OA
ATOM    100   O  SGN B   5      30.498  17.837  10.5710  0.00  0.00     0.000 OA
ATOM    101   O  SGN B   5      32.119  19.027  11.8280  0.00  0.00     0.000 OA
ENDBRANCH 86 96
BRANCH 82 102
ATOM    102  O4  IDS B   6      25.689  18.710  11.7970  0.00  0.00     0.000 O
BRANCH 102 106
ATOM    103  C1  IDS B   6      23.530  20.324   9.3490  0.00  0.00     0.000 C
ATOM    104  C2  IDS B   6      23.192  18.928   9.8970  0.00  0.00     0.000 C
ATOM    105  C3  IDS B   6      24.348  17.947   9.9130  0.00  0.00     0.000 C
ATOM    106  C4  IDS B   6      25.653  18.586  10.3530  0.00  0.00     0.000 C
ATOM    107  C5  IDS B   6      25.810  19.955   9.6840  0.00  0.00     0.000 C
ATOM    108  O5  IDS B   6      24.705  20.815   9.9670  0.00  0.00     0.000 O
ATOM    109   O  IDS B   6      24.472  17.389   8.6160  0.00  0.00     0.000 O
ATOM    111  HD  IDS B   6      24.097  17.975   8.1000  0.00  0.00     0.000 HD
BRANCH 104 111
ATOM    111   O  IDS B   6      22.768  19.054  11.3000  0.00  0.00     0.000 O
ATOM    112   S  IDS B   6      21.207  18.930  11.6290  0.00  0.00     0.000 S
ATOM    113   O  IDS B   6      20.583  19.986  10.8460  0.00  0.00     0.000 OA
ATOM    114   O  IDS B   6      20.766  17.572  11.2870  0.00  0.00     0.000 OA
ATOM    115   O  IDS B   6      21.245  19.197  13.0500  0.00  0.00     0.000 OA
ENDBRANCH 104 111
BRANCH 107 116
ATOM    116   C  IDS B   6      27.104  20.603  10.1590  0.00  0.00     0.000 C
ATOM    117   O  IDS B   6      26.999  21.615  10.8040  0.00  0.00     0.000 OA
ATOM    118   O  IDS B   6      28.193  20.120   9.8890  0.00  0.00     0.000 OA
ENDBRANCH 107 116
BRANCH 103 119
ATOM    119  O4  SGN B   7      23.452  20.169   8.0030  0.00  0.00     0.000 O
BRANCH 119 123
ATOM    120  C1  SGN B   7      22.471  22.567   4.7200  0.00  0.00     0.000 C
ATOM    121  C2  SGN B   7      23.770  22.895   5.4810  0.00  0.00     0.000 C
ATOM    122  C3  SGN B   7      24.185  21.716   6.3700  0.00  0.00     0.000 C
ATOM    123  C4  SGN B   7      23.028  21.319   7.2700  0.00  0.00     0.000 C
ATOM    124  C5  SGN B   7      21.783  21.018   6.4200  0.00  0.00     0.000 C
ATOM    125  O5  SGN B   7      21.427  22.155   5.6010  0.00  0.00     0.000 O
ATOM    126   O  SGN B   7      25.336  22.092   7.1340  0.00  0.00     0.000 O
ATOM    128  HD  SGN B   7      24.789  22.278   6.4890  0.00  0.00     0.000 HD
BRANCH 121 130
ATOM    128   N  SGN B   7      23.945  24.283   5.0460  0.00  0.00     0.000 N
ATOM    130  HD  SGN B   7      24.560  24.401   5.6440  0.00  0.00     0.000 HD
ATOM    130   S  SGN B   7      25.236  24.766   4.2130  0.00  0.00     0.000 S
ATOM    131   O  SGN B   7      25.351  23.842   3.1370  0.00  0.00     0.000 OA
ATOM    132   O  SGN B   7      25.106  26.155   3.9550  0.00  0.00     0.000 OA
ATOM    133   O  SGN B   7      26.338  24.670   5.3220  0.00  0.00     0.000 OA
ENDBRANCH 121 130
BRANCH 124 134
ATOM    134   C  SGN B   7      20.552  20.728   7.2260  0.00  0.00     0.000 C
ATOM    135   O  SGN B   7      19.585  21.762   6.9750  0.00  0.00     0.000 O
ATOM    136   S  SGN B   7      18.163  21.559   7.6110  0.00  0.00     0.000 S
ATOM    137   O  SGN B   7      17.411  22.756   7.3140  0.00  0.00     0.000 OA
ATOM    138   O  SGN B   7      18.402  21.379   9.0250  0.00  0.00     0.000 OA
ATOM    139   O  SGN B   7      17.679  20.371   6.9250  0.00  0.00     0.000 OA
ENDBRANCH 124 134
BRANCH 120 140
ATOM    140  O4  IDS B   8      22.293  21.664   3.7490  0.00  0.00     0.000 O
BRANCH 140 144
ATOM    141  C1  IDS B   8      22.676  18.544   1.9940  0.00  0.00     0.000 C
ATOM    142  C2  IDS B   8      23.868  19.180   2.7650  0.00  0.00     0.000 C
ATOM    143  C3  IDS B   8      24.069  20.672   2.4420  0.00  0.00     0.000 C
ATOM    144  C4  IDS B   8      22.746  21.435   2.4090  0.00  0.00     0.000 C
ATOM    145  C5  IDS B   8      21.693  20.636   1.6250  0.00  0.00     0.000 C
ATOM    146  O5  IDS B   8      21.506  19.333   2.1720  0.00  0.00     0.000 O
BRANCH 142 147
ATOM    147   O  IDS B   8      23.623  19.076   4.2280  0.00  0.00     0.000 O
ATOM    148   S  IDS B   8      24.338  17.921   5.1150  0.00  0.00     0.000 S
ATOM    149   O  IDS B   8      24.836  16.915   4.2040  0.00  0.00     0.000 OA
ATOM    150   O  IDS B   8      25.398  18.593   5.8430  0.00  0.00     0.000 OA
ATOM    151   O  IDS B   8      23.295  17.402   5.9780  0.00  0.00     0.000 OA
ENDBRANCH 142 147
BRANCH 145 152
ATOM    152   C  IDS B   8      20.329  21.295   1.6410  0.00  0.00     0.000 C
ATOM    153   O  IDS B   8      19.384  20.717   2.1660  0.00  0.00     0.000 OA
ATOM    154   O  IDS B   8      20.190  22.402   1.1520  0.00  0.00     0.000 OA
ENDBRANCH 145 152
ENDBRANCH 140 144
ENDBRANCH 120 140
ENDBRANCH 119 123
ENDBRANCH 103 119
ENDBRANCH 102 106
ENDBRANCH 82 102
ENDBRANCH 81 85
ENDBRANCH 65 81
ENDBRANCH 64 68
ENDBRANCH 41 64
ENDBRANCH 40 44
ENDBRANCH 24 40
ENDBRANCH 23 27
ENDBRANCH 1 23
TORSDOF 31
ENDMDL
MODEL 66
REMARK VINA RESULT:      -6.7     10.118     18.885
ROOT
ATOM      1  C1  SGN B   1      27.903   5.059  39.5440  0.00  0.00     0.000 C
ATOM      2  C2  SGN B   1      28.812   4.934  38.3110  0.00  0.00     0.000 C
ATOM      3  C3  SGN B   1      28.088   5.421  37.0510  0.00  0.00     0.000 C
ATOM      4  C4  SGN B   1      26.776   4.663  36.8720  0.00  0.00     0.000 C
ATOM      5  C5  SGN B   1      25.990   4.710  38.1800  0.00  0.00     0.000 C
ATOM      6  O5  SGN B   1      26.808   4.202  39.2520  0.00  0.00     0.000 O
ATOM      7   O  SGN B   1      28.916   5.263  35.9050  0.00  0.00     0.000 O
ATOM      9  HD  SGN B   1      28.835   4.445  36.1780  0.00  0.00     0.000 HD
ATOM      9   O  SGN B   1      26.027   5.260  35.8300  0.00  0.00     0.000 O
ATOM     11  HD  SGN B   1      25.945   4.442  36.1030  0.00  0.00     0.000 HD
ENDROOT
BRANCH 2 13
ATOM     11   N  SGN B   1      30.075   4.389  38.8450  0.00  0.00     0.000 N
ATOM     13  HD  SGN B   1      29.698   5.074  39.2190  0.00  0.00     0.000 HD
ATOM     13   S  SGN B   1      31.144   5.305  39.6260  0.00  0.00     0.000 S
ATOM     14   O  SGN B   1      30.658   6.624  39.7440  0.00  0.00     0.000 OA
ATOM     15   O  SGN B   1      31.567   4.607  40.7930  0.00  0.00     0.000 OA
ATOM     16   O  SGN B   1      32.308   5.219  38.5910  0.00  0.00     0.000 OA
ENDBRANCH 2 13
BRANCH 5 17
ATOM     17   C  SGN B   1      24.718   3.900  38.1620  0.00  0.00     0.000 C
ATOM     18   O  SGN B   1      24.848   2.719  38.9790  0.00  0.00     0.000 O
ATOM     19   S  SGN B   1      24.305   1.359  38.3370  0.00  0.00     0.000 S
ATOM     20   O  SGN B   1      24.331   0.397  39.4190  0.00  0.00     0.000 OA
ATOM     21   O  SGN B   1      22.973   1.688  37.8870  0.00  0.00     0.000 OA
ATOM     22   O  SGN B   1      25.228   1.052  37.2660  0.00  0.00     0.000 OA
ENDBRANCH 5 17
BRANCH 1 23
ATOM     23  O4  IDS B   2      27.575   5.947  40.5260  0.00  0.00     0.000 O
BRANCH 23 27
ATOM     24  C1  IDS B   2      24.889   8.857  39.2790  0.00  0.00     0.000 C
ATOM     25  C2  IDS B   2      26.383   9.221  39.1320  0.00  0.00     0.000 C
ATOM     26  C3  IDS B   2      27.267   7.992  39.3320  0.00  0.00     0.000 C
ATOM     27  C4  IDS B   2      27.016   7.272  40.6500  0.00  0.00     0.000 C
ATOM     28  C5  IDS B   2      25.511   7.300  40.9870  0.00  0.00     0.000 C
ATOM     29  O5  IDS B   2      24.734   7.540  39.8230  0.00  0.00     0.000 O
ATOM     30   O  IDS B   2      28.633   8.390  39.3130  0.00  0.00     0.000 O
ATOM     32  HD  IDS B   2      28.897   8.739  40.0600  0.00  0.00     0.000 HD
BRANCH 25 32
ATOM     32   O  IDS B   2      26.694   9.784  37.7950  0.00  0.00     0.000 O
ATOM     33   S  IDS B   2      27.289  11.312  37.6090  0.00  0.00     0.000 S
ATOM     34   O  IDS B   2      27.255  11.589  36.1820  0.00  0.00     0.000 OA
ATOM     35   O  IDS B   2      26.458  12.248  38.3540  0.00  0.00     0.000 OA
ATOM     36   O  IDS B   2      28.645  11.266  38.1040  0.00  0.00     0.000 OA
ENDBRANCH 25 32
BRANCH 28 37
ATOM     37   C  IDS B   2      24.916   6.084  41.7260  0.00  0.00     0.000 C
ATOM     38   O  IDS B   2      24.013   5.561  41.1150  0.00  0.00     0.000 OA
ATOM     39   O  IDS B   2      25.313   5.589  42.8090  0.00  0.00     0.000 OA
ENDBRANCH 28 37
BRANCH 24 40
ATOM     40  O4  SUS B   3      23.951   9.824  39.2040  0.00  0.00     0.000 O
BRANCH 40 44
ATOM     41  C1  SUS B   3      20.107   9.747  37.5400  0.00  0.00     0.000 C
ATOM     42  C2  SUS B   3      20.312   9.004  38.8760  0.00  0.00     0.000 C
ATOM     43  C3  SUS B   3      21.578   9.526  39.5520  0.00  0.00     0.000 C
ATOM     44  C4  SUS B   3      22.744   9.392  38.5850  0.00  0.00     0.000 C
ATOM     45  C5  SUS B   3      22.463  10.236  37.3590  0.00  0.00     0.000 C
ATOM     46  O5  SUS B   3      21.279   9.720  36.7180  0.00  0.00     0.000 O
BRANCH 42 49
ATOM     47   N  SUS B   3      18.914   8.625  38.6100  0.00  0.00     0.000 N
ATOM     49  HD  SUS B   3      18.363   9.272  38.4410  0.00  0.00     0.000 HD
ATOM     49   S  SUS B   3      18.284   7.730  39.7800  0.00  0.00     0.000 S
ATOM     50   O  SUS B   3      18.364   8.418  41.0070  0.00  0.00     0.000 OA
ATOM     51   O  SUS B   3      16.829   7.733  39.2450  0.00  0.00     0.000 OA
ATOM     52   O  SUS B   3      18.833   6.433  39.7220  0.00  0.00     0.000 OA
ENDBRANCH 42 49
BRANCH 43 53
ATOM     53   O  SUS B   3      21.824   8.704  40.7520  0.00  0.00     0.000 O
ATOM     54   S  SUS B   3      21.968   9.494  42.1870  0.00  0.00     0.000 S
ATOM     55   O  SUS B   3      20.645   9.986  42.5470  0.00  0.00     0.000 OA
ATOM     56   O  SUS B   3      22.485   8.485  43.0940  0.00  0.00     0.000 OA
ATOM     57   O  SUS B   3      22.902  10.600  41.9590  0.00  0.00     0.000 OA
ENDBRANCH 43 53
BRANCH 45 58
ATOM     58   C  SUS B   3      23.626  10.234  36.3910  0.00  0.00     0.000 C
ATOM     59   S  SUS B   3      24.803   8.783  34.6310  0.00  0.00     0.000 S
ATOM     60   O  SUS B   3      23.550   9.064  35.5580  0.00  0.00     0.000 O
ATOM     61   O  SUS B   3      25.805   8.213  35.5110  0.00  0.00     0.000 OA
ATOM     62   O  SUS B   3      24.249   7.818  33.7190  0.00  0.00     0.000 OA
ATOM     63   O  SUS B   3      25.140  10.037  34.0570  0.00  0.00     0.000 OA
ENDBRANCH 45 58
BRANCH 41 64
ATOM     64  O4  IDS B   4      19.548  10.994  37.6800  0.00  0.00     0.000 O
BRANCH 64 68
ATOM     65  C1  IDS B   4      17.230  13.560  36.5340  0.00  0.00     0.000 C
ATOM     66  C2  IDS B   4      16.983  12.086  36.1880  0.00  0.00     0.000 C
ATOM     67  C3  IDS B   4      18.209  11.348  35.6780  0.00  0.00     0.000 C
ATOM     68  C4  IDS B   4      19.474  11.715  36.4300  0.00  0.00     0.000 C
ATOM     69  C5  IDS B   4      19.503  13.239  36.6020  0.00  0.00     0.000 C
ATOM     70  O5  IDS B   4      18.369  13.647  37.3710  0.00  0.00     0.000 O
ATOM     71   O  IDS B   4      18.356  11.673  34.3110  0.00  0.00     0.000 O
ATOM     73  HD  IDS B   4      17.932  11.606  35.0630  0.00  0.00     0.000 HD
BRANCH 66 73
ATOM     73   O  IDS B   4      16.578  11.375  37.4080  0.00  0.00     0.000 O
ATOM     74   S  IDS B   4      15.057  10.829  37.4970  0.00  0.00     0.000 S
ATOM     75   O  IDS B   4      14.198  11.976  37.2950  0.00  0.00     0.000 OA
ATOM     76   O  IDS B   4      15.014  10.292  38.8340  0.00  0.00     0.000 OA
ATOM     77   O  IDS B   4      14.942   9.837  36.4550  0.00  0.00     0.000 OA
ENDBRANCH 66 73
BRANCH 69 78
ATOM     78   C  IDS B   4      20.815  13.787  37.1450  0.00  0.00     0.000 C
ATOM     79   O  IDS B   4      21.226  13.371  38.2280  0.00  0.00     0.000 OA
ATOM     80   O  IDS B   4      21.481  14.557  36.4290  0.00  0.00     0.000 OA
ENDBRANCH 69 78
BRANCH 65 81
ATOM     81  O4  SGN B   5      17.252  14.297  35.3890  0.00  0.00     0.000 O
BRANCH 81 85
ATOM     82  C1  SGN B   5      16.304  18.048  33.7560  0.00  0.00     0.000 C
ATOM     83  C2  SGN B   5      17.452  18.001  34.7750  0.00  0.00     0.000 C
ATOM     84  C3  SGN B   5      17.963  16.559  34.9070  0.00  0.00     0.000 C
ATOM     85  C4  SGN B   5      16.803  15.649  35.2710  0.00  0.00     0.000 C
ATOM     86  C5  SGN B   5      15.742  15.763  34.1790  0.00  0.00     0.000 C
ATOM     87  O5  SGN B   5      15.290  17.129  34.1160  0.00  0.00     0.000 O
ATOM     88   O  SGN B   5      18.979  16.498  35.8830  0.00  0.00     0.000 O
ATOM     90  HD  SGN B   5      19.105  16.501  35.0260  0.00  0.00     0.000 HD
BRANCH 83 92
ATOM     90   N  SGN B   5      18.106  19.167  34.1500  0.00  0.00     0.000 N
ATOM     92  HD  SGN B   5      17.720  19.377  33.4030  0.00  0.00     0.000 HD
ATOM     92   S  SGN B   5      18.489  20.405  35.0850  0.00  0.00     0.000 S
ATOM     93   O  SGN B   5      19.088  21.351  34.1930  0.00  0.00     0.000 OA
ATOM     94   O  SGN B   5      17.298  20.741  35.7870  0.00  0.00     0.000 OA
ATOM     95   O  SGN B   5      19.463  19.837  36.0940  0.00  0.00     0.000 OA
ENDBRANCH 83 92
BRANCH 86 96
ATOM     96   C  SGN B   5      14.523  14.894  34.4050  0.00  0.00     0.000 C
ATOM     97   O  SGN B   5      14.062  15.015  35.7530  0.00  0.00     0.000 O
ATOM     98   S  SGN B   5      12.502  15.336  35.9400  0.00  0.00     0.000 S
ATOM     99   O  SGN B   5      12.317  15.194  37.3640  0.00  0.00     0.000 OA
ATOM    100   O  SGN B   5      12.273  16.644  35.4400  0.00  0.00     0.000 OA
ATOM    101   O  SGN B   5      11.839  14.327  35.1790  0.00  0.00     0.000 OA
ENDBRANCH 86 96
BRANCH 82 102
ATOM    102  O4  IDS B   6      16.725  17.815  32.4800  0.00  0.00     0.000 O
BRANCH 102 106
ATOM    103  C1  IDS B   6      17.339  18.729  29.0100  0.00  0.00     0.000 C
ATOM    104  C2  IDS B   6      17.668  19.705  30.1500  0.00  0.00     0.000 C
ATOM    105  C3  IDS B   6      16.575  19.873  31.1880  0.00  0.00     0.000 C
ATOM    106  C4  IDS B   6      15.902  18.561  31.5480  0.00  0.00     0.000 C
ATOM    107  C5  IDS B   6      15.643  17.747  30.2770  0.00  0.00     0.000 C
ATOM    108  O5  IDS B   6      16.845  17.513  29.5400  0.00  0.00     0.000 O
ATOM    109   O  IDS B   6      15.630  20.804  30.6870  0.00  0.00     0.000 O
ATOM    111  HD  IDS B   6      15.740  20.772  29.8290  0.00  0.00     0.000 HD
BRANCH 104 111
ATOM    111   O  IDS B   6      18.834  19.201  30.8910  0.00  0.00     0.000 O
ATOM    112   S  IDS B   6      20.244  19.922  30.6580  0.00  0.00     0.000 S
ATOM    113   O  IDS B   6      20.492  19.788  29.2300  0.00  0.00     0.000 OA
ATOM    114   O  IDS B   6      20.143  21.305  31.1350  0.00  0.00     0.000 OA
ATOM    115   O  IDS B   6      21.079  19.074  31.4810  0.00  0.00     0.000 OA
ENDBRANCH 104 111
BRANCH 107 116
ATOM    116   C  IDS B   6      15.001  16.417  30.6520  0.00  0.00     0.000 C
ATOM    117   O  IDS B   6      15.627  15.421  30.3960  0.00  0.00     0.000 OA
ATOM    118   O  IDS B   6      13.900  16.370  31.1780  0.00  0.00     0.000 OA
ENDBRANCH 107 116
BRANCH 103 119
ATOM    119  O4  SGN B   7      16.600  19.476  28.1500  0.00  0.00     0.000 O
BRANCH 119 123
ATOM    120  C1  SGN B   7      16.105  19.667  24.0020  0.00  0.00     0.000 C
ATOM    121  C2  SGN B   7      15.188  18.709  24.7860  0.00  0.00     0.000 C
ATOM    122  C3  SGN B   7      15.212  19.048  26.2820  0.00  0.00     0.000 C
ATOM    123  C4  SGN B   7      16.647  19.073  26.7810  0.00  0.00     0.000 C
ATOM    124  C5  SGN B   7      17.478  20.049  25.9320  0.00  0.00     0.000 C
ATOM    125  O5  SGN B   7      17.429  19.692  24.5330  0.00  0.00     0.000 O
ATOM    126   O  SGN B   7      14.430  18.079  26.9910  0.00  0.00     0.000 O
ATOM    128  HD  SGN B   7      14.673  18.414  26.2300  0.00  0.00     0.000 HD
BRANCH 121 130
ATOM    128   N  SGN B   7      14.793  17.904  23.6280  0.00  0.00     0.000 N
ATOM    130  HD  SGN B   7      14.528  17.267  24.1520  0.00  0.00     0.000 HD
ATOM    130   S  SGN B   7      13.251  17.668  23.2310  0.00  0.00     0.000 S
ATOM    131   O  SGN B   7      12.668  18.966  23.2130  0.00  0.00     0.000 OA
ATOM    132   O  SGN B   7      13.208  16.846  22.0760  0.00  0.00     0.000 OA
ATOM    133   O  SGN B   7      12.800  16.729  24.4020  0.00  0.00     0.000 OA
ENDBRANCH 121 130
BRANCH 124 134
ATOM    134   C  SGN B   7      18.939  20.058  26.2740  0.00  0.00     0.000 C
ATOM    135   O  SGN B   7      19.641  20.797  25.2600  0.00  0.00     0.000 O
ATOM    136   S  SGN B   7      21.170  21.055  25.5150  0.00  0.00     0.000 S
ATOM    137   O  SGN B   7      21.673  21.712  24.3320  0.00  0.00     0.000 OA
ATOM    138   O  SGN B   7      21.745  19.745  25.7210  0.00  0.00     0.000 OA
ATOM    139   O  SGN B   7      21.152  21.899  26.6990  0.00  0.00     0.000 OA
ENDBRANCH 124 134
BRANCH 120 140
ATOM    140  O4  IDS B   8      15.939  20.978  23.7920  0.00  0.00     0.000 O
BRANCH 140 144
ATOM    141  C1  IDS B   8      14.908  23.390  21.3270  0.00  0.00     0.000 C
ATOM    142  C2  IDS B   8      15.654  22.090  20.9110  0.00  0.00     0.000 C
ATOM    143  C3  IDS B   8      16.918  21.825  21.7490  0.00  0.00     0.000 C
ATOM    144  C4  IDS B   8      16.680  22.072  23.2380  0.00  0.00     0.000 C
ATOM    145  C5  IDS B   8      15.910  23.386  23.4410  0.00  0.00     0.000 C
ATOM    146  O5  IDS B   8      14.675  23.389  22.7300  0.00  0.00     0.000 O
BRANCH 142 147
ATOM    147   O  IDS B   8      14.753  20.922  21.0920  0.00  0.00     0.000 O
ATOM    148   S  IDS B   8      14.705  19.726  19.9970  0.00  0.00     0.000 S
ATOM    149   O  IDS B   8      15.324  20.215  18.7860  0.00  0.00     0.000 OA
ATOM    150   O  IDS B   8      15.436  18.624  20.5960  0.00  0.00     0.000 OA
ATOM    151   O  IDS B   8      13.296  19.438  19.8070  0.00  0.00     0.000 OA
ENDBRANCH 142 147
BRANCH 145 152
ATOM    152   C  IDS B   8      15.557  23.637  24.8930  0.00  0.00     0.000 C
ATOM    153   O  IDS B   8      14.396  23.887  25.1980  0.00  0.00     0.000 OA
ATOM    154   O  IDS B   8      16.425  23.568  25.7440  0.00  0.00     0.000 OA
ENDBRANCH 145 152
ENDBRANCH 140 144
ENDBRANCH 120 140
ENDBRANCH 119 123
ENDBRANCH 103 119
ENDBRANCH 102 106
ENDBRANCH 82 102
ENDBRANCH 81 85
ENDBRANCH 65 81
ENDBRANCH 64 68
ENDBRANCH 41 64
ENDBRANCH 40 44
ENDBRANCH 24 40
ENDBRANCH 23 27
ENDBRANCH 1 23
TORSDOF 31
ENDMDL
MODEL 67
REMARK VINA RESULT:      -6.7      8.065     11.737
ROOT
ATOM      1  C1  SGN B   1      28.094  10.671  14.3580  0.00  0.00     0.000 C
ATOM      2  C2  SGN B   1      29.388  10.222  15.0560  0.00  0.00     0.000 C
ATOM      3  C3  SGN B   1      30.044   9.066  14.2930  0.00  0.00     0.000 C
ATOM      4  C4  SGN B   1      29.055   7.916  14.1290  0.00  0.00     0.000 C
ATOM      5  C5  SGN B   1      27.746   8.461  13.5630  0.00  0.00     0.000 C
ATOM      6  O5  SGN B   1      27.260   9.522  14.4080  0.00  0.00     0.000 O
ATOM      7   O  SGN B   1      31.216   8.623  14.9670  0.00  0.00     0.000 O
ATOM      9  HD  SGN B   1      30.605   8.475  15.5620  0.00  0.00     0.000 HD
ATOM      9   O  SGN B   1      29.601   6.947  13.2530  0.00  0.00     0.000 O
ATOM     11  HD  SGN B   1      28.990   6.799  13.8480  0.00  0.00     0.000 HD
ENDROOT
BRANCH 2 13
ATOM     11   N  SGN B   1      29.251  11.227  16.1270  0.00  0.00     0.000 N
ATOM     13  HD  SGN B   1      29.428  11.471  15.3150  0.00  0.00     0.000 HD
ATOM     13   S  SGN B   1      30.022  12.639  16.0850  0.00  0.00     0.000 S
ATOM     14   O  SGN B   1      30.761  12.753  14.8890  0.00  0.00     0.000 OA
ATOM     15   O  SGN B   1      29.100  13.666  16.4390  0.00  0.00     0.000 OA
ATOM     16   O  SGN B   1      30.958  12.418  17.3130  0.00  0.00     0.000 OA
ENDBRANCH 2 13
BRANCH 5 17
ATOM     17   C  SGN B   1      26.647   7.432  13.4570  0.00  0.00     0.000 C
ATOM     18   O  SGN B   1      25.602   7.883  12.5730  0.00  0.00     0.000 O
ATOM     19   S  SGN B   1      24.105   7.675  13.0930  0.00  0.00     0.000 S
ATOM     20   O  SGN B   1      23.266   7.980  11.9530  0.00  0.00     0.000 OA
ATOM     21   O  SGN B   1      24.059   6.286  13.4890  0.00  0.00     0.000 OA
ATOM     22   O  SGN B   1      23.953   8.605  14.1900  0.00  0.00     0.000 OA
ENDBRANCH 5 17
BRANCH 1 23
ATOM     23  O4  IDS B   2      27.661  11.544  13.4040  0.00  0.00     0.000 O
BRANCH 23 27
ATOM     24  C1  IDS B   2      25.852  15.099  14.5530  0.00  0.00     0.000 C
ATOM     25  C2  IDS B   2      24.972  13.835  14.6700  0.00  0.00     0.000 C
ATOM     26  C3  IDS B   2      25.811  12.570  14.5130  0.00  0.00     0.000 C
ATOM     27  C4  IDS B   2      26.630  12.539  13.2300  0.00  0.00     0.000 C
ATOM     28  C5  IDS B   2      27.157  13.952  12.9060  0.00  0.00     0.000 C
ATOM     29  O5  IDS B   2      27.161  14.770  14.0670  0.00  0.00     0.000 O
ATOM     30   O  IDS B   2      24.951  11.436  14.5010  0.00  0.00     0.000 O
ATOM     32  HD  IDS B   2      24.563  11.310  13.7370  0.00  0.00     0.000 HD
BRANCH 25 32
ATOM     32   O  IDS B   2      24.278  13.754  15.9780  0.00  0.00     0.000 O
ATOM     33   S  IDS B   2      25.066  13.303  17.3560  0.00  0.00     0.000 S
ATOM     34   O  IDS B   2      24.038  13.120  18.3690  0.00  0.00     0.000 OA
ATOM     35   O  IDS B   2      25.799  12.068  17.1130  0.00  0.00     0.000 OA
ATOM     36   O  IDS B   2      25.939  14.405  17.6850  0.00  0.00     0.000 OA
ENDBRANCH 25 32
BRANCH 28 37
ATOM     37   C  IDS B   2      28.536  14.069  12.2260  0.00  0.00     0.000 C
ATOM     38   O  IDS B   2      28.484  13.895  11.0310  0.00  0.00     0.000 OA
ATOM     39   O  IDS B   2      29.624  14.375  12.7720  0.00  0.00     0.000 OA
ENDBRANCH 28 37
BRANCH 24 40
ATOM     40  O4  SUS B   3      25.283  16.322  14.5970  0.00  0.00     0.000 O
BRANCH 40 44
ATOM     41  C1  SUS B   3      26.103  19.605  17.0660  0.00  0.00     0.000 C
ATOM     42  C2  SUS B   3      27.234  19.122  16.1360  0.00  0.00     0.000 C
ATOM     43  C3  SUS B   3      26.636  18.282  15.0100  0.00  0.00     0.000 C
ATOM     44  C4  SUS B   3      25.815  17.156  15.6200  0.00  0.00     0.000 C
ATOM     45  C5  SUS B   3      24.686  17.758  16.4330  0.00  0.00     0.000 C
ATOM     46  O5  SUS B   3      25.264  18.530  17.5040  0.00  0.00     0.000 O
BRANCH 42 49
ATOM     47   N  SUS B   3      27.952  20.382  15.8750  0.00  0.00     0.000 N
ATOM     49  HD  SUS B   3      27.940  20.672  15.0590  0.00  0.00     0.000 HD
ATOM     49   S  SUS B   3      29.477  20.337  16.3640  0.00  0.00     0.000 S
ATOM     50   O  SUS B   3      30.151  19.269  15.7380  0.00  0.00     0.000 OA
ATOM     51   O  SUS B   3      29.905  21.691  15.7440  0.00  0.00     0.000 OA
ATOM     52   O  SUS B   3      29.517  20.398  17.7710  0.00  0.00     0.000 OA
ENDBRANCH 42 49
BRANCH 43 53
ATOM     53   O  SUS B   3      27.749  17.720  14.2210  0.00  0.00     0.000 O
ATOM     54   S  SUS B   3      27.984  18.334  12.7150  0.00  0.00     0.000 S
ATOM     55   O  SUS B   3      28.509  19.683  12.8710  0.00  0.00     0.000 OA
ATOM     56   O  SUS B   3      28.920  17.409  12.1000  0.00  0.00     0.000 OA
ATOM     57   O  SUS B   3      26.672  18.347  12.0620  0.00  0.00     0.000 OA
ENDBRANCH 43 53
BRANCH 45 58
ATOM     58   C  SUS B   3      23.763  16.697  16.9910  0.00  0.00     0.000 C
ATOM     59   S  SUS B   3      21.903  16.327  18.7210  0.00  0.00     0.000 S
ATOM     60   O  SUS B   3      22.812  17.312  17.8770  0.00  0.00     0.000 O
ATOM     61   O  SUS B   3      22.753  15.859  19.7990  0.00  0.00     0.000 OA
ATOM     62   O  SUS B   3      20.878  17.230  19.1730  0.00  0.00     0.000 OA
ATOM     63   O  SUS B   3      21.474  15.329  17.8070  0.00  0.00     0.000 OA
ENDBRANCH 45 58
BRANCH 41 64
ATOM     64  O4  IDS B   4      25.417  20.693  16.5840  0.00  0.00     0.000 O
BRANCH 64 68
ATOM     65  C1  IDS B   4      23.957  24.031  16.6170  0.00  0.00     0.000 C
ATOM     66  C2  IDS B   4      25.375  23.803  17.1550  0.00  0.00     0.000 C
ATOM     67  C3  IDS B   4      25.510  22.609  18.0840  0.00  0.00     0.000 C
ATOM     68  C4  IDS B   4      24.708  21.407  17.6210  0.00  0.00     0.000 C
ATOM     69  C5  IDS B   4      23.321  21.899  17.1850  0.00  0.00     0.000 C
ATOM     70  O5  IDS B   4      23.466  22.810  16.0930  0.00  0.00     0.000 O
ATOM     71   O  IDS B   4      25.063  23.018  19.3600  0.00  0.00     0.000 O
ATOM     73  HD  IDS B   4      25.348  23.135  18.5510  0.00  0.00     0.000 HD
BRANCH 66 73
ATOM     73   O  IDS B   4      26.270  23.522  16.0240  0.00  0.00     0.000 O
ATOM     74   S  IDS B   4      27.457  24.577  15.7150  0.00  0.00     0.000 S
ATOM     75   O  IDS B   4      26.822  25.863  15.5240  0.00  0.00     0.000 OA
ATOM     76   O  IDS B   4      28.039  24.026  14.5170  0.00  0.00     0.000 OA
ATOM     77   O  IDS B   4      28.322  24.533  16.8700  0.00  0.00     0.000 OA
ENDBRANCH 66 73
BRANCH 69 78
ATOM     78   C  IDS B   4      22.320  20.787  16.8990  0.00  0.00     0.000 C
ATOM     79   O  IDS B   4      22.350  20.233  15.8010  0.00  0.00     0.000 OA
ATOM     80   O  IDS B   4      21.578  20.403  17.8210  0.00  0.00     0.000 OA
ENDBRANCH 69 78
BRANCH 65 81
ATOM     81  O4  SGN B   5      23.201  24.635  17.5750  0.00  0.00     0.000 O
BRANCH 81 85
ATOM     82  C1  SGN B   5      19.514  26.572  18.1180  0.00  0.00     0.000 C
ATOM     83  C2  SGN B   5      19.599  25.101  18.5490  0.00  0.00     0.000 C
ATOM     84  C3  SGN B   5      21.071  24.701  18.7220  0.00  0.00     0.000 C
ATOM     85  C4  SGN B   5      21.823  24.990  17.4350  0.00  0.00     0.000 C
ATOM     86  C5  SGN B   5      21.686  26.478  17.1240  0.00  0.00     0.000 C
ATOM     87  O5  SGN B   5      20.290  26.788  16.9540  0.00  0.00     0.000 O
ATOM     88   O  SGN B   5      21.160  23.335  19.0640  0.00  0.00     0.000 O
ATOM     90  HD  SGN B   5      21.239  23.996  19.6170  0.00  0.00     0.000 HD
BRANCH 83 92
ATOM     90   N  SGN B   5      18.126  25.120  18.4670  0.00  0.00     0.000 N
ATOM     92  HD  SGN B   5      17.859  24.996  17.6520  0.00  0.00     0.000 HD
ATOM     92   S  SGN B   5      17.300  24.322  19.5780  0.00  0.00     0.000 S
ATOM     93   O  SGN B   5      15.929  24.530  19.2190  0.00  0.00     0.000 OA
ATOM     94   O  SGN B   5      17.842  23.007  19.5920  0.00  0.00     0.000 OA
ATOM     95   O  SGN B   5      17.680  24.981  20.8860  0.00  0.00     0.000 OA
ENDBRANCH 83 92
BRANCH 86 96
ATOM     96   C  SGN B   5      22.403  26.917  15.8640  0.00  0.00     0.000 C
ATOM     97   O  SGN B   5      21.794  26.331  14.7100  0.00  0.00     0.000 O
ATOM     98   S  SGN B   5      21.413  27.340  13.5230  0.00  0.00     0.000 S
ATOM     99   O  SGN B   5      21.025  26.446  12.4590  0.00  0.00     0.000 OA
ATOM    100   O  SGN B   5      20.375  28.183  13.9970  0.00  0.00     0.000 OA
ATOM    101   O  SGN B   5      22.623  28.046  13.2560  0.00  0.00     0.000 OA
ENDBRANCH 86 96
BRANCH 82 102
ATOM    102  O4  IDS B   6      19.892  27.432  19.1060  0.00  0.00     0.000 O
BRANCH 102 106
ATOM    103  C1  IDS B   6      19.552  30.122  21.5360  0.00  0.00     0.000 C
ATOM    104  C2  IDS B   6      18.615  28.904  21.5750  0.00  0.00     0.000 C
ATOM    105  C3  IDS B   6      18.022  28.507  20.2370  0.00  0.00     0.000 C
ATOM    106  C4  IDS B   6      19.026  28.595  19.1020  0.00  0.00     0.000 C
ATOM    107  C5  IDS B   6      19.844  29.883  19.2340  0.00  0.00     0.000 C
ATOM    108  O5  IDS B   6      20.502  29.969  20.4990  0.00  0.00     0.000 O
ATOM    109   O  IDS B   6      16.902  29.339  19.9860  0.00  0.00     0.000 O
ATOM    111  HD  IDS B   6      17.051  30.041  20.4720  0.00  0.00     0.000 HD
BRANCH 104 111
ATOM    111   O  IDS B   6      19.374  27.729  22.0290  0.00  0.00     0.000 O
ATOM    112   S  IDS B   6      19.114  27.191  23.5140  0.00  0.00     0.000 S
ATOM    113   O  IDS B   6      19.427  28.322  24.3730  0.00  0.00     0.000 OA
ATOM    114   O  IDS B   6      17.726  26.722  23.6010  0.00  0.00     0.000 OA
ATOM    115   O  IDS B   6      20.099  26.131  23.5540  0.00  0.00     0.000 OA
ENDBRANCH 104 111
BRANCH 107 116
ATOM    116   C  IDS B   6      20.872  29.945  18.1110  0.00  0.00     0.000 C
ATOM    117   O  IDS B   6      20.446  30.096  16.9940  0.00  0.00     0.000 OA
ATOM    118   O  IDS B   6      22.067  29.836  18.3370  0.00  0.00     0.000 OA
ENDBRANCH 107 116
BRANCH 103 119
ATOM    119  O4  SGN B   7      18.704  31.181  21.5680  0.00  0.00     0.000 O
BRANCH 119 123
ATOM    120  C1  SGN B   7      19.064  35.233  22.5410  0.00  0.00     0.000 C
ATOM    121  C2  SGN B   7      19.146  34.847  21.0520  0.00  0.00     0.000 C
ATOM    122  C3  SGN B   7      18.603  33.429  20.8330  0.00  0.00     0.000 C
ATOM    123  C4  SGN B   7      19.315  32.458  21.7610  0.00  0.00     0.000 C
ATOM    124  C5  SGN B   7      19.181  32.933  23.2170  0.00  0.00     0.000 C
ATOM    125  O5  SGN B   7      19.705  34.270  23.3770  0.00  0.00     0.000 O
ATOM    126   O  SGN B   7      18.786  33.067  19.4600  0.00  0.00     0.000 O
ATOM    128  HD  SGN B   7      18.807  33.684  20.0670  0.00  0.00     0.000 HD
BRANCH 121 130
ATOM    128   N  SGN B   7      18.715  36.220  20.7800  0.00  0.00     0.000 N
ATOM    130  HD  SGN B   7      19.512  36.512  20.9530  0.00  0.00     0.000 HD
ATOM    130   S  SGN B   7      19.155  37.011  19.4490  0.00  0.00     0.000 S
ATOM    131   O  SGN B   7      18.856  36.127  18.3750  0.00  0.00     0.000 OA
ATOM    132   O  SGN B   7      18.583  38.309  19.4900  0.00  0.00     0.000 OA
ATOM    133   O  SGN B   7      20.676  37.240  19.7480  0.00  0.00     0.000 OA
ENDBRANCH 121 130
BRANCH 124 134
ATOM    134   C  SGN B   7      19.949  32.100  24.2010  0.00  0.00     0.000 C
ATOM    135   O  SGN B   7      21.353  32.350  24.0130  0.00  0.00     0.000 O
ATOM    136   S  SGN B   7      22.326  31.687  25.0530  0.00  0.00     0.000 S
ATOM    137   O  SGN B   7      23.665  31.988  24.6050  0.00  0.00     0.000 OA
ATOM    138   O  SGN B   7      22.021  30.275  25.0100  0.00  0.00     0.000 OA
ATOM    139   O  SGN B   7      21.955  32.347  26.2950  0.00  0.00     0.000 OA
ENDBRANCH 124 134
BRANCH 120 140
ATOM    140  O4  IDS B   8      17.967  35.450  23.2760  0.00  0.00     0.000 O
BRANCH 140 144
ATOM    141  C1  IDS B   8      14.691  35.674  24.7520  0.00  0.00     0.000 C
ATOM    142  C2  IDS B   8      14.983  36.293  23.3560  0.00  0.00     0.000 C
ATOM    143  C3  IDS B   8      16.256  37.159  23.3330  0.00  0.00     0.000 C
ATOM    144  C4  IDS B   8      17.412  36.497  24.0820  0.00  0.00     0.000 C
ATOM    145  C5  IDS B   8      16.919  35.927  25.4210  0.00  0.00     0.000 C
ATOM    146  O5  IDS B   8      15.848  35.005  25.2380  0.00  0.00     0.000 O
BRANCH 142 147
ATOM    147   O  IDS B   8      15.173  35.205  22.3610  0.00  0.00     0.000 O
ATOM    148   S  IDS B   8      14.662  35.372  20.8310  0.00  0.00     0.000 S
ATOM    149   O  IDS B   8      13.732  36.478  20.7980  0.00  0.00     0.000 OA
ATOM    150   O  IDS B   8      15.858  35.619  20.0470  0.00  0.00     0.000 OA
ATOM    151   O  IDS B   8      14.018  34.114  20.5040  0.00  0.00     0.000 OA
ENDBRANCH 142 147
BRANCH 145 152
ATOM    152   C  IDS B   8      18.000  35.170  26.1660  0.00  0.00     0.000 C
ATOM    153   O  IDS B   8      17.833  33.986  26.4330  0.00  0.00     0.000 OA
ATOM    154   O  IDS B   8      19.031  35.741  26.4740  0.00  0.00     0.000 OA
ENDBRANCH 145 152
ENDBRANCH 140 144
ENDBRANCH 120 140
ENDBRANCH 119 123
ENDBRANCH 103 119
ENDBRANCH 102 106
ENDBRANCH 82 102
ENDBRANCH 81 85
ENDBRANCH 65 81
ENDBRANCH 64 68
ENDBRANCH 41 64
ENDBRANCH 40 44
ENDBRANCH 24 40
ENDBRANCH 23 27
ENDBRANCH 1 23
TORSDOF 31
ENDMDL
MODEL 68
REMARK VINA RESULT:      -6.7     10.046     16.447
ROOT
ATOM      1  C1  SGN B   1      14.756  21.134  19.6640  0.00  0.00     0.000 C
ATOM      2  C2  SGN B   1      13.405  20.629  19.1310  0.00  0.00     0.000 C
ATOM      3  C3  SGN B   1      13.370  20.688  17.6000  0.00  0.00     0.000 C
ATOM      4  C4  SGN B   1      13.681  22.101  17.1190  0.00  0.00     0.000 C
ATOM      5  C5  SGN B   1      14.958  22.590  17.7980  0.00  0.00     0.000 C
ATOM      6  O5  SGN B   1      14.814  22.486  19.2280  0.00  0.00     0.000 O
ATOM      7   O  SGN B   1      12.103  20.262  17.1120  0.00  0.00     0.000 O
ATOM      9  HD  SGN B   1      11.886  20.951  17.5890  0.00  0.00     0.000 HD
ATOM      9   O  SGN B   1      13.847  22.095  15.7130  0.00  0.00     0.000 O
ATOM     11  HD  SGN B   1      13.629  22.784  16.1910  0.00  0.00     0.000 HD
ENDROOT
BRANCH 2 13
ATOM     11   N  SGN B   1      12.657  20.264  20.3490  0.00  0.00     0.000 N
ATOM     13  HD  SGN B   1      13.464  19.975  20.2240  0.00  0.00     0.000 HD
ATOM     13   S  SGN B   1      12.925  18.891  21.1420  0.00  0.00     0.000 S
ATOM     14   O  SGN B   1      13.975  18.173  20.5300  0.00  0.00     0.000 OA
ATOM     15   O  SGN B   1      12.995  19.181  22.5350  0.00  0.00     0.000 OA
ATOM     16   O  SGN B   1      11.546  18.210  20.8830  0.00  0.00     0.000 OA
ENDBRANCH 2 13
BRANCH 5 17
ATOM     17   C  SGN B   1      15.311  24.023  17.4850  0.00  0.00     0.000 C
ATOM     18   O  SGN B   1      16.512  24.420  18.1760  0.00  0.00     0.000 O
ATOM     19   S  SGN B   1      16.468  25.848  18.8960  0.00  0.00     0.000 S
ATOM     20   O  SGN B   1      17.834  26.107  19.2990  0.00  0.00     0.000 OA
ATOM     21   O  SGN B   1      15.987  26.744  17.8700  0.00  0.00     0.000 OA
ATOM     22   O  SGN B   1      15.557  25.682  20.0070  0.00  0.00     0.000 OA
ENDBRANCH 5 17
BRANCH 1 23
ATOM     23  O4  IDS B   2      15.998  20.676  19.9880  0.00  0.00     0.000 O
BRANCH 23 27
ATOM     24  C1  IDS B   2      19.197  20.331  22.6110  0.00  0.00     0.000 C
ATOM     25  C2  IDS B   2      18.302  21.575  22.8100  0.00  0.00     0.000 C
ATOM     26  C3  IDS B   2      17.010  21.451  22.0070  0.00  0.00     0.000 C
ATOM     27  C4  IDS B   2      17.237  21.183  20.5260  0.00  0.00     0.000 C
ATOM     28  C5  IDS B   2      18.445  20.242  20.3410  0.00  0.00     0.000 C
ATOM     29  O5  IDS B   2      18.713  19.519  21.5330  0.00  0.00     0.000 O
ATOM     30   O  IDS B   2      16.273  22.663  22.1160  0.00  0.00     0.000 O
ATOM     32  HD  IDS B   2      16.570  23.291  21.5980  0.00  0.00     0.000 HD
BRANCH 25 32
ATOM     32   O  IDS B   2      17.930  21.777  24.2320  0.00  0.00     0.000 O
ATOM     33   S  IDS B   2      18.379  23.128  25.0670  0.00  0.00     0.000 S
ATOM     34   O  IDS B   2      18.039  22.875  26.4580  0.00  0.00     0.000 OA
ATOM     35   O  IDS B   2      19.808  23.348  24.8990  0.00  0.00     0.000 OA
ATOM     36   O  IDS B   2      17.588  24.206  24.5190  0.00  0.00     0.000 OA
ENDBRANCH 25 32
BRANCH 28 37
ATOM     37   C  IDS B   2      18.407  19.243  19.1660  0.00  0.00     0.000 C
ATOM     38   O  IDS B   2      17.968  18.163  19.4850  0.00  0.00     0.000 OA
ATOM     39   O  IDS B   2      18.714  19.471  17.9700  0.00  0.00     0.000 OA
ENDBRANCH 28 37
BRANCH 24 40
ATOM     40  O4  SUS B   3      20.416  20.281  23.1860  0.00  0.00     0.000 O
BRANCH 40 44
ATOM     41  C1  SUS B   3      22.617  17.009  24.5990  0.00  0.00     0.000 C
ATOM     42  C2  SUS B   3      22.498  17.171  23.0700  0.00  0.00     0.000 C
ATOM     43  C3  SUS B   3      22.107  18.612  22.7460  0.00  0.00     0.000 C
ATOM     44  C4  SUS B   3      20.837  18.960  23.5060  0.00  0.00     0.000 C
ATOM     45  C5  SUS B   3      21.109  18.851  24.9920  0.00  0.00     0.000 C
ATOM     46  O5  SUS B   3      21.455  17.482  25.2880  0.00  0.00     0.000 O
BRANCH 42 49
ATOM     47   N  SUS B   3      23.770  16.570  22.6340  0.00  0.00     0.000 N
ATOM     49  HD  SUS B   3      24.346  17.105  22.2700  0.00  0.00     0.000 HD
ATOM     49   S  SUS B   3      23.559  15.321  21.6540  0.00  0.00     0.000 S
ATOM     50   O  SUS B   3      22.812  15.718  20.5260  0.00  0.00     0.000 OA
ATOM     51   O  SUS B   3      25.052  15.132  21.2810  0.00  0.00     0.000 OA
ATOM     52   O  SUS B   3      23.087  14.220  22.3950  0.00  0.00     0.000 OA
ENDBRANCH 42 49
BRANCH 43 53
ATOM     53   O  SUS B   3      21.864  18.701  21.2930  0.00  0.00     0.000 O
ATOM     54   S  SUS B   3      22.958  19.542  20.4000  0.00  0.00     0.000 S
ATOM     55   O  SUS B   3      24.181  18.752  20.3520  0.00  0.00     0.000 OA
ATOM     56   O  SUS B   3      22.312  19.701  19.1100  0.00  0.00     0.000 OA
ATOM     57   O  SUS B   3      23.175  20.813  21.0980  0.00  0.00     0.000 OA
ENDBRANCH 43 53
BRANCH 45 58
ATOM     58   C  SUS B   3      19.917  19.279  25.8190  0.00  0.00     0.000 C
ATOM     59   S  SUS B   3      17.558  18.549  26.5170  0.00  0.00     0.000 S
ATOM     60   O  SUS B   3      18.964  18.205  25.8750  0.00  0.00     0.000 O
ATOM     61   O  SUS B   3      16.835  19.267  25.4850  0.00  0.00     0.000 OA
ATOM     62   O  SUS B   3      17.037  17.227  26.7430  0.00  0.00     0.000 OA
ATOM     63   O  SUS B   3      17.848  19.296  27.6890  0.00  0.00     0.000 OA
ENDBRANCH 45 58
BRANCH 41 64
ATOM     64  O4  IDS B   4      23.803  17.473  25.1130  0.00  0.00     0.000 O
BRANCH 64 68
ATOM     65  C1  IDS B   4      26.862  17.666  27.0840  0.00  0.00     0.000 C
ATOM     66  C2  IDS B   4      26.722  16.615  25.9750  0.00  0.00     0.000 C
ATOM     67  C3  IDS B   4      25.404  15.860  25.9890  0.00  0.00     0.000 C
ATOM     68  C4  IDS B   4      24.216  16.753  26.2960  0.00  0.00     0.000 C
ATOM     69  C5  IDS B   4      24.598  17.669  27.4670  0.00  0.00     0.000 C
ATOM     70  O5  IDS B   4      25.706  18.485  27.0830  0.00  0.00     0.000 O
ATOM     71   O  IDS B   4      25.509  14.850  26.9710  0.00  0.00     0.000 O
ATOM     73  HD  IDS B   4      25.809  15.446  26.4190  0.00  0.00     0.000 HD
BRANCH 66 73
ATOM     73   O  IDS B   4      26.772  17.292  24.6720  0.00  0.00     0.000 O
ATOM     74   S  IDS B   4      28.177  17.951  24.2140  0.00  0.00     0.000 S
ATOM     75   O  IDS B   4      28.554  18.879  25.2580  0.00  0.00     0.000 OA
ATOM     76   O  IDS B   4      27.815  18.583  22.9700  0.00  0.00     0.000 OA
ATOM     77   O  IDS B   4      29.094  16.845  24.0740  0.00  0.00     0.000 OA
ENDBRANCH 66 73
BRANCH 69 78
ATOM     78   C  IDS B   4      23.439  18.473  28.0400  0.00  0.00     0.000 C
ATOM     79   O  IDS B   4      22.847  18.037  29.0260  0.00  0.00     0.000 OA
ATOM     80   O  IDS B   4      23.197  19.595  27.5580  0.00  0.00     0.000 OA
ENDBRANCH 69 78
BRANCH 65 81
ATOM     81  O4  SGN B   5      27.176  17.049  28.2570  0.00  0.00     0.000 O
BRANCH 81 85
ATOM     82  C1  SGN B   5      28.183  17.847  32.2550  0.00  0.00     0.000 C
ATOM     83  C2  SGN B   5      26.706  17.554  31.9530  0.00  0.00     0.000 C
ATOM     84  C3  SGN B   5      26.591  16.845  30.5960  0.00  0.00     0.000 C
ATOM     85  C4  SGN B   5      27.261  17.694  29.5300  0.00  0.00     0.000 C
ATOM     86  C5  SGN B   5      28.721  17.896  29.9260  0.00  0.00     0.000 C
ATOM     87  O5  SGN B   5      28.765  18.580  31.1930  0.00  0.00     0.000 O
ATOM     88   O  SGN B   5      25.233  16.623  30.2850  0.00  0.00     0.000 O
ATOM     90  HD  SGN B   5      25.782  16.027  30.5880  0.00  0.00     0.000 HD
BRANCH 83 92
ATOM     90   N  SGN B   5      25.761  18.290  32.8140  0.00  0.00     0.000 N
ATOM     92  HD  SGN B   5      25.123  18.642  32.3460  0.00  0.00     0.000 HD
ATOM     92   S  SGN B   5      25.297  17.603  34.1800  0.00  0.00     0.000 S
ATOM     93   O  SGN B   5      24.397  18.550  34.7660  0.00  0.00     0.000 OA
ATOM     94   O  SGN B   5      24.834  16.306  33.8220  0.00  0.00     0.000 OA
ATOM     95   O  SGN B   5      26.573  17.423  34.9730  0.00  0.00     0.000 OA
ENDBRANCH 83 92
BRANCH 86 96
ATOM     96   C  SGN B   5      29.524  18.721  28.9410  0.00  0.00     0.000 C
ATOM     97   O  SGN B   5      30.876  18.262  28.8860  0.00  0.00     0.000 O
ATOM     98   S  SGN B   5      31.462  17.964  27.4230  0.00  0.00     0.000 S
ATOM     99   O  SGN B   5      32.862  17.728  27.6830  0.00  0.00     0.000 OA
ATOM    100   O  SGN B   5      30.760  16.847  26.9020  0.00  0.00     0.000 OA
ATOM    101   O  SGN B   5      31.218  19.165  26.6920  0.00  0.00     0.000 OA
ENDBRANCH 86 96
BRANCH 82 102
ATOM    102  O4  IDS B   6      28.903  16.716  32.5010  0.00  0.00     0.000 O
BRANCH 102 106
ATOM    103  C1  IDS B   6      30.856  14.374  34.4910  0.00  0.00     0.000 C
ATOM    104  C2  IDS B   6      29.500  14.894  34.9950  0.00  0.00     0.000 C
ATOM    105  C3  IDS B   6      29.304  16.393  34.8820  0.00  0.00     0.000 C
ATOM    106  C4  IDS B   6      29.843  16.958  33.5800  0.00  0.00     0.000 C
ATOM    107  C5  IDS B   6      31.204  16.330  33.2670  0.00  0.00     0.000 C
ATOM    108  O5  IDS B   6      31.132  14.905  33.2090  0.00  0.00     0.000 O
ATOM    109   O  IDS B   6      29.932  17.006  35.9950  0.00  0.00     0.000 O
ATOM    111  HD  IDS B   6      30.522  16.424  36.2480  0.00  0.00     0.000 HD
BRANCH 104 111
ATOM    111   O  IDS B   6      28.427  14.299  34.1830  0.00  0.00     0.000 O
ATOM    112   S  IDS B   6      27.327  13.405  34.9270  0.00  0.00     0.000 S
ATOM    113   O  IDS B   6      28.089  12.342  35.5630  0.00  0.00     0.000 OA
ATOM    114   O  IDS B   6      26.580  14.264  35.8540  0.00  0.00     0.000 OA
ATOM    115   O  IDS B   6      26.562  12.972  33.7770  0.00  0.00     0.000 OA
ENDBRANCH 104 111
BRANCH 107 116
ATOM    116   C  IDS B   6      31.719  16.876  31.9420  0.00  0.00     0.000 C
ATOM    117   O  IDS B   6      31.807  16.093  31.0300  0.00  0.00     0.000 OA
ATOM    118   O  IDS B   6      32.034  18.049  31.8170  0.00  0.00     0.000 OA
ENDBRANCH 107 116
BRANCH 103 119
ATOM    119  O4  SGN B   7      31.691  14.589  35.5400  0.00  0.00     0.000 O
BRANCH 119 123
ATOM    120  C1  SGN B   7      35.056  12.714  37.1680  0.00  0.00     0.000 C
ATOM    121  C2  SGN B   7      35.266  13.606  35.9300  0.00  0.00     0.000 C
ATOM    122  C3  SGN B   7      34.051  14.516  35.7100  0.00  0.00     0.000 C
ATOM    123  C4  SGN B   7      32.784  13.678  35.6580  0.00  0.00     0.000 C
ATOM    124  C5  SGN B   7      32.671  12.822  36.9300  0.00  0.00     0.000 C
ATOM    125  O5  SGN B   7      33.834  11.981  37.0950  0.00  0.00     0.000 O
ATOM    126   O  SGN B   7      34.236  15.258  34.4990  0.00  0.00     0.000 O
ATOM    128  HD  SGN B   7      34.575  14.734  35.1000  0.00  0.00     0.000 HD
BRANCH 121 130
ATOM    128   N  SGN B   7      36.566  13.050  35.5450  0.00  0.00     0.000 N
ATOM    130  HD  SGN B   7      36.490  13.399  34.7560  0.00  0.00     0.000 HD
ATOM    130   S  SGN B   7      37.878  13.968  35.3790  0.00  0.00     0.000 S
ATOM    131   O  SGN B   7      37.949  14.735  36.5760  0.00  0.00     0.000 OA
ATOM    132   O  SGN B   7      38.960  13.135  34.9950  0.00  0.00     0.000 OA
ATOM    133   O  SGN B   7      37.506  14.758  34.0780  0.00  0.00     0.000 OA
ENDBRANCH 121 130
BRANCH 124 134
ATOM    134   C  SGN B   7      31.510  11.871  36.9200  0.00  0.00     0.000 C
ATOM    135   O  SGN B   7      31.666  10.947  38.0110  0.00  0.00     0.000 O
ATOM    136   S  SGN B   7      30.471   9.961  38.2680  0.00  0.00     0.000 S
ATOM    137   O  SGN B   7      30.896   9.076  39.3270  0.00  0.00     0.000 OA
ATOM    138   O  SGN B   7      30.265   9.279  37.0110  0.00  0.00     0.000 OA
ATOM    139   O  SGN B   7      29.396  10.864  38.6480  0.00  0.00     0.000 OA
ENDBRANCH 124 134
BRANCH 120 140
ATOM    140  O4  IDS B   8      35.000  13.087  38.4510  0.00  0.00     0.000 O
BRANCH 140 144
ATOM    141  C1  IDS B   8      34.132  15.111  41.2990  0.00  0.00     0.000 C
ATOM    142  C2  IDS B   8      34.487  15.764  39.9330  0.00  0.00     0.000 C
ATOM    143  C3  IDS B   8      35.783  15.206  39.3160  0.00  0.00     0.000 C
ATOM    144  C4  IDS B   8      35.862  13.684  39.4280  0.00  0.00     0.000 C
ATOM    145  C5  IDS B   8      35.452  13.235  40.8380  0.00  0.00     0.000 C
ATOM    146  O5  IDS B   8      34.147  13.694  41.1790  0.00  0.00     0.000 O
BRANCH 142 147
ATOM    147   O  IDS B   8      33.392  15.507  38.9610  0.00  0.00     0.000 O
ATOM    148   S  IDS B   8      32.263  16.631  38.6580  0.00  0.00     0.000 S
ATOM    149   O  IDS B   8      32.323  17.610  39.7190  0.00  0.00     0.000 OA
ATOM    150   O  IDS B   8      32.608  17.186  37.3620  0.00  0.00     0.000 OA
ATOM    151   O  IDS B   8      31.002  15.915  38.6520  0.00  0.00     0.000 OA
ENDBRANCH 142 147
BRANCH 145 152
ATOM    152   C  IDS B   8      35.415  11.727  40.9830  0.00  0.00     0.000 C
ATOM    153   O  IDS B   8      34.360  11.173  41.2720  0.00  0.00     0.000 OA
ATOM    154   O  IDS B   8      36.428  11.079  40.7900  0.00  0.00     0.000 OA
ENDBRANCH 145 152
ENDBRANCH 140 144
ENDBRANCH 120 140
ENDBRANCH 119 123
ENDBRANCH 103 119
ENDBRANCH 102 106
ENDBRANCH 82 102
ENDBRANCH 81 85
ENDBRANCH 65 81
ENDBRANCH 64 68
ENDBRANCH 41 64
ENDBRANCH 40 44
ENDBRANCH 24 40
ENDBRANCH 23 27
ENDBRANCH 1 23
TORSDOF 31
ENDMDL
MODEL 69
REMARK VINA RESULT:      -6.7      8.428     16.907
ROOT
ATOM      1  C1  SGN B   1      25.017  17.682  25.3450  0.00  0.00     0.000 C
ATOM      2  C2  SGN B   1      25.068  16.145  25.3660  0.00  0.00     0.000 C
ATOM      3  C3  SGN B   1      25.914  15.646  26.5420  0.00  0.00     0.000 C
ATOM      4  C4  SGN B   1      27.308  16.262  26.4860  0.00  0.00     0.000 C
ATOM      5  C5  SGN B   1      27.179  17.774  26.3230  0.00  0.00     0.000 C
ATOM      6  O5  SGN B   1      26.373  18.068  25.1660  0.00  0.00     0.000 O
ATOM      7   O  SGN B   1      25.996  14.225  26.5320  0.00  0.00     0.000 O
ATOM      9  HD  SGN B   1      26.362  14.428  25.7730  0.00  0.00     0.000 HD
ATOM      9   O  SGN B   1      28.006  15.956  27.6790  0.00  0.00     0.000 O
ATOM     11  HD  SGN B   1      28.372  16.159  26.9210  0.00  0.00     0.000 HD
ENDROOT
BRANCH 2 13
ATOM     11   N  SGN B   1      24.238  15.835  24.1860  0.00  0.00     0.000 N
ATOM     13  HD  SGN B   1      23.923  16.322  24.8300  0.00  0.00     0.000 HD
ATOM     13   S  SGN B   1      22.632  15.756  24.2630  0.00  0.00     0.000 S
ATOM     14   O  SGN B   1      22.192  16.069  25.5650  0.00  0.00     0.000 OA
ATOM     15   O  SGN B   1      22.093  16.465  23.1510  0.00  0.00     0.000 OA
ATOM     16   O  SGN B   1      22.470  14.234  23.9590  0.00  0.00     0.000 OA
ENDBRANCH 2 13
BRANCH 5 17
ATOM     17   C  SGN B   1      28.497  18.488  26.1460  0.00  0.00     0.000 C
ATOM     18   O  SGN B   1      28.551  19.160  24.8710  0.00  0.00     0.000 O
ATOM     19   S  SGN B   1      29.906  18.981  24.0410  0.00  0.00     0.000 S
ATOM     20   O  SGN B   1      29.801  19.921  22.9450  0.00  0.00     0.000 OA
ATOM     21   O  SGN B   1      30.946  19.310  24.9880  0.00  0.00     0.000 OA
ATOM     22   O  SGN B   1      29.910  17.597  23.6190  0.00  0.00     0.000 OA
ENDBRANCH 5 17
BRANCH 1 23
ATOM     23  O4  IDS B   2      24.279  18.718  25.8350  0.00  0.00     0.000 O
BRANCH 23 27
ATOM     24  C1  IDS B   2      20.860  19.913  23.8070  0.00  0.00     0.000 C
ATOM     25  C2  IDS B   2      22.198  20.373  23.1880  0.00  0.00     0.000 C
ATOM     26  C3  IDS B   2      23.376  19.642  23.8280  0.00  0.00     0.000 C
ATOM     27  C4  IDS B   2      23.415  19.764  25.3450  0.00  0.00     0.000 C
ATOM     28  C5  IDS B   2      21.982  19.726  25.9130  0.00  0.00     0.000 C
ATOM     29  O5  IDS B   2      21.084  19.131  24.9880  0.00  0.00     0.000 O
ATOM     30   O  IDS B   2      24.592  20.181  23.3220  0.00  0.00     0.000 O
ATOM     32  HD  IDS B   2      24.815  20.930  23.6960  0.00  0.00     0.000 HD
BRANCH 25 32
ATOM     32   O  IDS B   2      22.256  20.124  21.7270  0.00  0.00     0.000 O
ATOM     33   S  IDS B   2      22.421  21.353  20.6380  0.00  0.00     0.000 S
ATOM     34   O  IDS B   2      22.212  20.762  19.3260  0.00  0.00     0.000 OA
ATOM     35   O  IDS B   2      21.433  22.385  20.9200  0.00  0.00     0.000 OA
ATOM     36   O  IDS B   2      23.775  21.831  20.7920  0.00  0.00     0.000 OA
ENDBRANCH 25 32
BRANCH 28 37
ATOM     37   C  IDS B   2      21.770  19.062  27.2900  0.00  0.00     0.000 C
ATOM     38   O  IDS B   2      20.625  18.720  27.4730  0.00  0.00     0.000 OA
ATOM     39   O  IDS B   2      22.650  18.807  28.1490  0.00  0.00     0.000 OA
ENDBRANCH 28 37
BRANCH 24 40
ATOM     40  O4  SUS B   3      19.705  20.493  23.4210  0.00  0.00     0.000 O
BRANCH 40 44
ATOM     41  C1  SUS B   3      15.882  18.854  22.9250  0.00  0.00     0.000 C
ATOM     42  C2  SUS B   3      16.364  19.094  24.3690  0.00  0.00     0.000 C
ATOM     43  C3  SUS B   3      17.511  20.103  24.3560  0.00  0.00     0.000 C
ATOM     44  C4  SUS B   3      18.597  19.600  23.4180  0.00  0.00     0.000 C
ATOM     45  C5  SUS B   3      18.026  19.492  22.0190  0.00  0.00     0.000 C
ATOM     46  O5  SUS B   3      16.959  18.522  22.0410  0.00  0.00     0.000 O
BRANCH 42 49
ATOM     47   N  SUS B   3      15.387  18.065  24.7660  0.00  0.00     0.000 N
ATOM     49  HD  SUS B   3      14.727  17.929  24.2220  0.00  0.00     0.000 HD
ATOM     49   S  SUS B   3      14.785  18.317  26.2280  0.00  0.00     0.000 S
ATOM     50   O  SUS B   3      14.181  19.589  26.2870  0.00  0.00     0.000 OA
ATOM     51   O  SUS B   3      13.707  17.203  26.1720  0.00  0.00     0.000 OA
ATOM     52   O  SUS B   3      15.763  18.013  27.1950  0.00  0.00     0.000 OA
ENDBRANCH 42 49
BRANCH 43 53
ATOM     53   O  SUS B   3      18.042  20.206  25.7290  0.00  0.00     0.000 O
ATOM     54   S  SUS B   3      17.910  21.664  26.4760  0.00  0.00     0.000 S
ATOM     55   O  SUS B   3      16.502  21.869  26.7880  0.00  0.00     0.000 OA
ATOM     56   O  SUS B   3      18.757  21.537  27.6480  0.00  0.00     0.000 OA
ATOM     57   O  SUS B   3      18.392  22.665  25.5200  0.00  0.00     0.000 OA
ENDBRANCH 43 53
BRANCH 45 58
ATOM     58   C  SUS B   3      19.077  19.092  21.0070  0.00  0.00     0.000 C
ATOM     59   S  SUS B   3      19.937  17.088  19.6540  0.00  0.00     0.000 S
ATOM     60   O  SUS B   3      18.816  17.753  20.5540  0.00  0.00     0.000 O
ATOM     61   O  SUS B   3      20.974  16.678  20.5810  0.00  0.00     0.000 OA
ATOM     62   O  SUS B   3      19.212  15.975  19.1030  0.00  0.00     0.000 OA
ATOM     63   O  SUS B   3      20.317  18.088  18.7200  0.00  0.00     0.000 OA
ENDBRANCH 45 58
BRANCH 41 64
ATOM     64  O4  IDS B   4      15.047  19.835  22.4490  0.00  0.00     0.000 O
BRANCH 64 68
ATOM     65  C1  IDS B   4      12.111  20.959  20.6070  0.00  0.00     0.000 C
ATOM     66  C2  IDS B   4      12.119  19.581  21.2830  0.00  0.00     0.000 C
ATOM     67  C3  IDS B   4      13.377  18.767  21.0350  0.00  0.00     0.000 C
ATOM     68  C4  IDS B   4      14.641  19.605  21.0820  0.00  0.00     0.000 C
ATOM     69  C5  IDS B   4      14.386  20.898  20.2950  0.00  0.00     0.000 C
ATOM     70  O5  IDS B   4      13.322  21.625  20.9160  0.00  0.00     0.000 O
ATOM     71   O  IDS B   4      13.246  18.171  19.7600  0.00  0.00     0.000 O
ATOM     73  HD  IDS B   4      12.964  18.564  20.4790  0.00  0.00     0.000 HD
BRANCH 66 73
ATOM     73   O  IDS B   4      12.055  19.769  22.7390  0.00  0.00     0.000 O
ATOM     74   S  IDS B   4      11.152  18.736  23.5970  0.00  0.00     0.000 S
ATOM     75   O  IDS B   4       9.817  18.798  23.0400  0.00  0.00     0.000 OA
ATOM     76   O  IDS B   4      11.259  19.283  24.9260  0.00  0.00     0.000 OA
ATOM     77   O  IDS B   4      11.780  17.447  23.4330  0.00  0.00     0.000 OA
ENDBRANCH 66 73
BRANCH 69 78
ATOM     78   C  IDS B   4      15.627  21.749  20.0620  0.00  0.00     0.000 C
ATOM     79   O  IDS B   4      16.579  21.252  19.4610  0.00  0.00     0.000 OA
ATOM     80   O  IDS B   4      15.598  22.948  20.3920  0.00  0.00     0.000 OA
ENDBRANCH 69 78
BRANCH 65 81
ATOM     81  O4  SGN B   5      11.810  20.814  19.2870  0.00  0.00     0.000 O
BRANCH 81 85
ATOM     82  C1  SGN B   5      10.515  23.042  15.9710  0.00  0.00     0.000 C
ATOM     83  C2  SGN B   5      11.343  23.784  17.0300  0.00  0.00     0.000 C
ATOM     84  C3  SGN B   5      12.106  22.768  17.8910  0.00  0.00     0.000 C
ATOM     85  C4  SGN B   5      11.121  21.778  18.4880  0.00  0.00     0.000 C
ATOM     86  C5  SGN B   5      10.380  21.090  17.3450  0.00  0.00     0.000 C
ATOM     87  O5  SGN B   5       9.670  22.089  16.5870  0.00  0.00     0.000 O
ATOM     88   O  SGN B   5      12.824  23.440  18.9020  0.00  0.00     0.000 O
ATOM     90  HD  SGN B   5      13.163  23.126  18.1700  0.00  0.00     0.000 HD
BRANCH 83 92
ATOM     90   N  SGN B   5      11.314  24.784  15.9450  0.00  0.00     0.000 N
ATOM     92  HD  SGN B   5      10.600  24.698  15.4620  0.00  0.00     0.000 HD
ATOM     92   S  SGN B   5      11.711  26.291  16.3010  0.00  0.00     0.000 S
ATOM     93   O  SGN B   5      11.577  26.995  15.0610  0.00  0.00     0.000 OA
ATOM     94   O  SGN B   5      10.903  26.650  17.4150  0.00  0.00     0.000 OA
ATOM     95   O  SGN B   5      13.141  26.207  16.7880  0.00  0.00     0.000 OA
ENDBRANCH 83 92
BRANCH 86 96
ATOM     96   C  SGN B   5       9.365  20.059  17.7950  0.00  0.00     0.000 C
ATOM     97   O  SGN B   5       9.519  18.847  17.0530  0.00  0.00     0.000 O
ATOM     98   S  SGN B   5       9.628  17.500  17.9170  0.00  0.00     0.000 S
ATOM     99   O  SGN B   5       9.567  16.470  16.9080  0.00  0.00     0.000 OA
ATOM    100   O  SGN B   5      10.851  17.553  18.6350  0.00  0.00     0.000 OA
ATOM    101   O  SGN B   5       8.482  17.529  18.7660  0.00  0.00     0.000 OA
ENDBRANCH 86 96
BRANCH 82 102
ATOM    102  O4  IDS B   6      11.291  22.444  15.0220  0.00  0.00     0.000 O
BRANCH 102 106
ATOM    103  C1  IDS B   6      12.687  21.965  11.6940  0.00  0.00     0.000 C
ATOM    104  C2  IDS B   6      12.654  23.360  12.3390  0.00  0.00     0.000 C
ATOM    105  C3  IDS B   6      11.328  23.747  12.9650  0.00  0.00     0.000 C
ATOM    106  C4  IDS B   6      10.678  22.599  13.7170  0.00  0.00     0.000 C
ATOM    107  C5  IDS B   6      10.801  21.310  12.9010  0.00  0.00     0.000 C
ATOM    108  O5  IDS B   6      12.161  21.004  12.5890  0.00  0.00     0.000 O
ATOM    109   O  IDS B   6      10.476  24.222  11.9360  0.00  0.00     0.000 O
ATOM    111  HD  IDS B   6      10.798  23.864  11.2160  0.00  0.00     0.000 HD
BRANCH 104 111
ATOM    111   O  IDS B   6      13.630  23.403  13.4380  0.00  0.00     0.000 O
ATOM    112   S  IDS B   6      14.834  24.453  13.3360  0.00  0.00     0.000 S
ATOM    113   O  IDS B   6      15.520  24.104  12.1020  0.00  0.00     0.000 OA
ATOM    114   O  IDS B   6      14.271  25.808  13.3620  0.00  0.00     0.000 OA
ATOM    115   O  IDS B   6      15.560  24.093  14.5350  0.00  0.00     0.000 OA
ENDBRANCH 104 111
BRANCH 107 116
ATOM    116   C  IDS B   6      10.178  20.158  13.6800  0.00  0.00     0.000 C
ATOM    117   O  IDS B   6       8.992  20.221  13.8840  0.00  0.00     0.000 OA
ATOM    118   O  IDS B   6      10.854  19.225  14.0840  0.00  0.00     0.000 OA
ENDBRANCH 107 116
BRANCH 103 119
ATOM    119  O4  SGN B   7      12.137  22.165  10.4690  0.00  0.00     0.000 O
BRANCH 119 123
ATOM    120  C1  SGN B   7      11.822  19.809   7.0280  0.00  0.00     0.000 C
ATOM    121  C2  SGN B   7      10.547  20.023   7.8650  0.00  0.00     0.000 C
ATOM    122  C3  SGN B   7      10.728  21.202   8.8290  0.00  0.00     0.000 C
ATOM    123  C4  SGN B   7      11.983  20.997   9.6610  0.00  0.00     0.000 C
ATOM    124  C5  SGN B   7      13.194  20.787   8.7370  0.00  0.00     0.000 C
ATOM    125  O5  SGN B   7      12.981  19.667   7.8490  0.00  0.00     0.000 O
ATOM    126   O  SGN B   7       9.565  21.310   9.6570  0.00  0.00     0.000 O
ATOM    128  HD  SGN B   7       9.946  20.950   8.9680  0.00  0.00     0.000 HD
BRANCH 121 130
ATOM    128   N  SGN B   7       9.762  19.844   6.6410  0.00  0.00     0.000 N
ATOM    130  HD  SGN B   7       9.979  19.006   6.6150  0.00  0.00     0.000 HD
ATOM    130   S  SGN B   7       8.356  19.061   6.6280  0.00  0.00     0.000 S
ATOM    131   O  SGN B   7       7.595  19.645   7.6790  0.00  0.00     0.000 OA
ATOM    132   O  SGN B   7       7.859  19.057   5.2990  0.00  0.00     0.000 OA
ATOM    133   O  SGN B   7       8.849  17.594   6.8700  0.00  0.00     0.000 OA
ENDBRANCH 121 130
BRANCH 124 134
ATOM    134   C  SGN B   7      14.464  20.461   9.4660  0.00  0.00     0.000 C
ATOM    135   O  SGN B   7      15.070  19.317   8.8410  0.00  0.00     0.000 O
ATOM    136   S  SGN B   7      16.494  18.906   9.3620  0.00  0.00     0.000 S
ATOM    137   O  SGN B   7      16.845  17.689   8.6700  0.00  0.00     0.000 OA
ATOM    138   O  SGN B   7      16.336  18.720  10.7870  0.00  0.00     0.000 OA
ATOM    139   O  SGN B   7      17.306  20.054   8.9900  0.00  0.00     0.000 OA
ENDBRANCH 124 134
BRANCH 120 140
ATOM    140  O4  IDS B   8      12.332  20.608   6.0850  0.00  0.00     0.000 O
BRANCH 140 144
ATOM    141  C1  IDS B   8      15.236  20.127   4.0130  0.00  0.00     0.000 C
ATOM    142  C2  IDS B   8      14.803  21.551   4.4630  0.00  0.00     0.000 C
ATOM    143  C3  IDS B   8      13.305  21.826   4.2350  0.00  0.00     0.000 C
ATOM    144  C4  IDS B   8      12.434  20.643   4.6560  0.00  0.00     0.000 C
ATOM    145  C5  IDS B   8      13.040  19.329   4.1390  0.00  0.00     0.000 C
ATOM    146  O5  IDS B   8      14.379  19.151   4.5940  0.00  0.00     0.000 O
BRANCH 142 147
ATOM    147   O  IDS B   8      15.062  21.712   5.9180  0.00  0.00     0.000 O
ATOM    148   S  IDS B   8      15.457  23.156   6.5420  0.00  0.00     0.000 S
ATOM    149   O  IDS B   8      15.862  24.010   5.4490  0.00  0.00     0.000 OA
ATOM    150   O  IDS B   8      14.259  23.629   7.2110  0.00  0.00     0.000 OA
ATOM    151   O  IDS B   8      16.552  22.890   7.4560  0.00  0.00     0.000 OA
ENDBRANCH 142 147
BRANCH 145 152
ATOM    152   C  IDS B   8      12.275  18.109   4.6080  0.00  0.00     0.000 C
ATOM    153   O  IDS B   8      12.864  17.224   5.2190  0.00  0.00     0.000 OA
ATOM    154   O  IDS B   8      11.079  18.029   4.3930  0.00  0.00     0.000 OA
ENDBRANCH 145 152
ENDBRANCH 140 144
ENDBRANCH 120 140
ENDBRANCH 119 123
ENDBRANCH 103 119
ENDBRANCH 102 106
ENDBRANCH 82 102
ENDBRANCH 81 85
ENDBRANCH 65 81
ENDBRANCH 64 68
ENDBRANCH 41 64
ENDBRANCH 40 44
ENDBRANCH 24 40
ENDBRANCH 23 27
ENDBRANCH 1 23
TORSDOF 31
ENDMDL
MODEL 70
REMARK VINA RESULT:      -6.7      5.462      8.826
ROOT
ATOM      1  C1  SGN B   1      25.748  16.149  14.4730  0.00  0.00     0.000 C
ATOM      2  C2  SGN B   1      24.461  15.819  13.6990  0.00  0.00     0.000 C
ATOM      3  C3  SGN B   1      23.807  14.547  14.2500  0.00  0.00     0.000 C
ATOM      4  C4  SGN B   1      24.802  13.391  14.2240  0.00  0.00     0.000 C
ATOM      5  C5  SGN B   1      26.104  13.837  14.8840  0.00  0.00     0.000 C
ATOM      6  O5  SGN B   1      26.589  15.029  14.2350  0.00  0.00     0.000 O
ATOM      7   O  SGN B   1      22.642  14.220  13.5030  0.00  0.00     0.000 O
ATOM      9  HD  SGN B   1      23.258  14.178  12.8960  0.00  0.00     0.000 HD
ATOM      9   O  SGN B   1      24.256  12.285  14.9190  0.00  0.00     0.000 O
ATOM     11  HD  SGN B   1      24.872  12.243  14.3120  0.00  0.00     0.000 HD
ENDROOT
BRANCH 2 13
ATOM     11   N  SGN B   1      24.523  16.961  12.7680  0.00  0.00     0.000 N
ATOM     13  HD  SGN B   1      24.445  17.093  13.6200  0.00  0.00     0.000 HD
ATOM     13   S  SGN B   1      23.821  18.373  13.0910  0.00  0.00     0.000 S
ATOM     14   O  SGN B   1      23.222  18.336  14.3680  0.00  0.00     0.000 OA
ATOM     15   O  SGN B   1      24.740  19.415  12.7780  0.00  0.00     0.000 OA
ATOM     16   O  SGN B   1      22.747  18.352  11.9600  0.00  0.00     0.000 OA
ENDBRANCH 2 13
BRANCH 5 17
ATOM     17   C  SGN B   1      27.208  12.811  14.8210  0.00  0.00     0.000 C
ATOM     18   O  SGN B   1      26.893  11.774  13.8700  0.00  0.00     0.000 O
ATOM     19   S  SGN B   1      27.160  10.273  14.3540  0.00  0.00     0.000 S
ATOM     20   O  SGN B   1      26.996   9.462  13.1670  0.00  0.00     0.000 OA
ATOM     21   O  SGN B   1      28.515  10.300  14.8540  0.00  0.00     0.000 OA
ATOM     22   O  SGN B   1      26.162  10.022  15.3710  0.00  0.00     0.000 OA
ENDBRANCH 5 17
BRANCH 1 23
ATOM     23  O4  IDS B   2      26.171  16.849  15.5640  0.00  0.00     0.000 O
BRANCH 23 27
ATOM     24  C1  IDS B   2      25.563  17.659  19.5900  0.00  0.00     0.000 C
ATOM     25  C2  IDS B   2      24.286  17.393  18.7630  0.00  0.00     0.000 C
ATOM     26  C3  IDS B   2      24.633  16.821  17.3910  0.00  0.00     0.000 C
ATOM     27  C4  IDS B   2      25.614  17.680  16.6050  0.00  0.00     0.000 C
ATOM     28  C5  IDS B   2      26.660  18.292  17.5590  0.00  0.00     0.000 C
ATOM     29  O5  IDS B   2      26.735  17.556  18.7700  0.00  0.00     0.000 O
ATOM     30   O  IDS B   2      23.445  16.707  16.6160  0.00  0.00     0.000 O
ATOM     32  HD  IDS B   2      23.189  17.459  16.2710  0.00  0.00     0.000 HD
BRANCH 25 32
ATOM     32   O  IDS B   2      23.374  16.433  19.4310  0.00  0.00     0.000 O
ATOM     33   S  IDS B   2      21.778  16.774  19.6790  0.00  0.00     0.000 S
ATOM     34   O  IDS B   2      21.269  15.721  20.5440  0.00  0.00     0.000 OA
ATOM     35   O  IDS B   2      21.654  18.083  20.3040  0.00  0.00     0.000 OA
ATOM     36   O  IDS B   2      21.162  16.726  18.3730  0.00  0.00     0.000 OA
ENDBRANCH 25 32
BRANCH 28 37
ATOM     37   C  IDS B   2      28.092  18.494  17.0240  0.00  0.00     0.000 C
ATOM     38   O  IDS B   2      28.194  19.467  16.3140  0.00  0.00     0.000 OA
ATOM     39   O  IDS B   2      29.106  17.809  17.3040  0.00  0.00     0.000 OA
ENDBRANCH 28 37
BRANCH 24 40
ATOM     40  O4  SUS B   3      25.468  18.230  20.8090  0.00  0.00     0.000 O
BRANCH 40 44
ATOM     41  C1  SUS B   3      28.055  18.051  24.0980  0.00  0.00     0.000 C
ATOM     42  C2  SUS B   3      28.568  18.772  22.8360  0.00  0.00     0.000 C
ATOM     43  C3  SUS B   3      27.380  19.159  21.9590  0.00  0.00     0.000 C
ATOM     44  C4  SUS B   3      26.558  17.913  21.6680  0.00  0.00     0.000 C
ATOM     45  C5  SUS B   3      26.036  17.353  22.9750  0.00  0.00     0.000 C
ATOM     46  O5  SUS B   3      27.167  16.971  23.7840  0.00  0.00     0.000 O
BRANCH 42 49
ATOM     47   N  SUS B   3      29.446  19.853  23.3160  0.00  0.00     0.000 N
ATOM     49  HD  SUS B   3      29.229  20.659  23.0840  0.00  0.00     0.000 HD
ATOM     49   S  SUS B   3      30.983  19.620  22.9260  0.00  0.00     0.000 S
ATOM     50   O  SUS B   3      31.109  19.492  21.5280  0.00  0.00     0.000 OA
ATOM     51   O  SUS B   3      31.499  21.003  23.3970  0.00  0.00     0.000 OA
ATOM     52   O  SUS B   3      31.516  18.591  23.7270  0.00  0.00     0.000 OA
ENDBRANCH 42 49
BRANCH 43 53
ATOM     53   O  SUS B   3      27.907  19.718  20.6990  0.00  0.00     0.000 O
ATOM     54   S  SUS B   3      27.649  21.317  20.4230  0.00  0.00     0.000 S
ATOM     55   O  SUS B   3      28.496  22.062  21.3440  0.00  0.00     0.000 OA
ATOM     56   O  SUS B   3      28.004  21.495  19.0260  0.00  0.00     0.000 OA
ATOM     57   O  SUS B   3      26.229  21.561  20.6920  0.00  0.00     0.000 OA
ENDBRANCH 43 53
BRANCH 45 58
ATOM     58   C  SUS B   3      25.123  16.166  22.7590  0.00  0.00     0.000 C
ATOM     59   S  SUS B   3      23.191  14.865  23.8360  0.00  0.00     0.000 S
ATOM     60   O  SUS B   3      24.106  16.156  23.7750  0.00  0.00     0.000 O
ATOM     61   O  SUS B   3      23.998  13.858  24.4960  0.00  0.00     0.000 OA
ATOM     62   O  SUS B   3      22.112  15.341  24.6600  0.00  0.00     0.000 OA
ATOM     63   O  SUS B   3      22.846  14.580  22.4880  0.00  0.00     0.000 OA
ENDBRANCH 45 58
BRANCH 41 64
ATOM     64  O4  IDS B   4      27.584  18.901  25.0680  0.00  0.00     0.000 O
BRANCH 64 68
ATOM     65  C1  IDS B   4      27.461  19.498  28.6610  0.00  0.00     0.000 C
ATOM     66  C2  IDS B   4      28.455  18.484  28.0800  0.00  0.00     0.000 C
ATOM     67  C3  IDS B   4      27.854  17.529  27.0620  0.00  0.00     0.000 C
ATOM     68  C4  IDS B   4      26.877  18.208  26.1210  0.00  0.00     0.000 C
ATOM     69  C5  IDS B   4      25.971  19.125  26.9540  0.00  0.00     0.000 C
ATOM     70  O5  IDS B   4      26.771  20.122  27.5940  0.00  0.00     0.000 O
ATOM     71   O  IDS B   4      27.193  16.509  27.7820  0.00  0.00     0.000 O
ATOM     73  HD  IDS B   4      27.746  17.168  27.6770  0.00  0.00     0.000 HD
BRANCH 66 73
ATOM     73   O  IDS B   4      29.508  19.213  27.3590  0.00  0.00     0.000 O
ATOM     74   S  IDS B   4      31.047  18.824  27.6690  0.00  0.00     0.000 S
ATOM     75   O  IDS B   4      31.232  18.988  29.0950  0.00  0.00     0.000 OA
ATOM     76   O  IDS B   4      31.762  19.787  26.8700  0.00  0.00     0.000 OA
ATOM     77   O  IDS B   4      31.196  17.458  27.2270  0.00  0.00     0.000 OA
ENDBRANCH 66 73
BRANCH 69 78
ATOM     78   C  IDS B   4      24.793  19.711  26.1880  0.00  0.00     0.000 C
ATOM     79   O  IDS B   4      24.128  18.968  25.4670  0.00  0.00     0.000 OA
ATOM     80   O  IDS B   4      24.477  20.897  26.3970  0.00  0.00     0.000 OA
ENDBRANCH 69 78
BRANCH 65 81
ATOM     81  O4  SGN B   5      26.700  18.891  29.6130  0.00  0.00     0.000 O
BRANCH 81 85
ATOM     82  C1  SGN B   5      24.450  19.624  33.0830  0.00  0.00     0.000 C
ATOM     83  C2  SGN B   5      24.188  20.537  31.8750  0.00  0.00     0.000 C
ATOM     84  C3  SGN B   5      24.717  19.866  30.6000  0.00  0.00     0.000 C
ATOM     85  C4  SGN B   5      26.186  19.528  30.7850  0.00  0.00     0.000 C
ATOM     86  C5  SGN B   5      26.317  18.603  31.9930  0.00  0.00     0.000 C
ATOM     87  O5  SGN B   5      25.824  19.292  33.1580  0.00  0.00     0.000 O
ATOM     88   O  SGN B   5      24.531  20.723  29.4950  0.00  0.00     0.000 O
ATOM     90  HD  SGN B   5      24.036  20.041  29.6900  0.00  0.00     0.000 HD
BRANCH 83 92
ATOM     90   N  SGN B   5      22.802  20.762  32.3320  0.00  0.00     0.000 N
ATOM     92  HD  SGN B   5      22.613  20.257  33.0100  0.00  0.00     0.000 HD
ATOM     92   S  SGN B   5      22.283  22.269  32.4440  0.00  0.00     0.000 S
ATOM     93   O  SGN B   5      20.935  22.146  32.9090  0.00  0.00     0.000 OA
ATOM     94   O  SGN B   5      23.250  22.953  33.2330  0.00  0.00     0.000 OA
ATOM     95   O  SGN B   5      22.381  22.815  31.0360  0.00  0.00     0.000 OA
ENDBRANCH 83 92
BRANCH 86 96
ATOM     96   C  SGN B   5      27.737  18.170  32.2920  0.00  0.00     0.000 C
ATOM     97   O  SGN B   5      27.803  16.753  32.4700  0.00  0.00     0.000 O
ATOM     98   S  SGN B   5      28.922  15.985  31.6150  0.00  0.00     0.000 S
ATOM     99   O  SGN B   5      28.873  14.648  32.1550  0.00  0.00     0.000 OA
ATOM    100   O  SGN B   5      28.557  16.086  30.2480  0.00  0.00     0.000 OA
ATOM    101   O  SGN B   5      30.134  16.674  31.9190  0.00  0.00     0.000 OA
ENDBRANCH 86 96
BRANCH 82 102
ATOM    102  O4  IDS B   6      23.689  18.494  33.0610  0.00  0.00     0.000 O
BRANCH 102 106
ATOM    103  C1  IDS B   6      21.102  16.341  34.4490  0.00  0.00     0.000 C
ATOM    104  C2  IDS B   6      20.987  17.870  34.5460  0.00  0.00     0.000 C
ATOM    105  C3  IDS B   6      22.241  18.581  35.0170  0.00  0.00     0.000 C
ATOM    106  C4  IDS B   6      23.506  17.999  34.4120  0.00  0.00     0.000 C
ATOM    107  C5  IDS B   6      23.431  16.470  34.4270  0.00  0.00     0.000 C
ATOM    108  O5  IDS B   6      22.275  15.986  33.7420  0.00  0.00     0.000 O
ATOM    109   O  IDS B   6      22.282  18.512  36.4330  0.00  0.00     0.000 O
ATOM    111  HD  IDS B   6      21.788  17.826  36.6230  0.00  0.00     0.000 HD
BRANCH 104 111
ATOM    111   O  IDS B   6      20.711  18.415  33.2080  0.00  0.00     0.000 O
ATOM    112   S  IDS B   6      19.208  18.849  32.8670  0.00  0.00     0.000 S
ATOM    113   O  IDS B   6      18.425  17.639  33.0600  0.00  0.00     0.000 OA
ATOM    114   O  IDS B   6      18.837  19.966  33.7440  0.00  0.00     0.000 OA
ATOM    115   O  IDS B   6      19.381  19.222  31.4800  0.00  0.00     0.000 OA
ENDBRANCH 104 111
BRANCH 107 116
ATOM    116   C  IDS B   6      24.689  15.897  33.7850  0.00  0.00     0.000 C
ATOM    117   O  IDS B   6      25.685  15.885  34.4620  0.00  0.00     0.000 OA
ATOM    118   O  IDS B   6      24.683  15.482  32.6370  0.00  0.00     0.000 OA
ENDBRANCH 107 116
BRANCH 103 119
ATOM    119  O4  SGN B   7      20.892  15.922  35.7240  0.00  0.00     0.000 O
BRANCH 119 123
ATOM    120  C1  SGN B   7      19.534  12.427  37.5780  0.00  0.00     0.000 C
ATOM    121  C2  SGN B   7      21.007  12.471  37.1290  0.00  0.00     0.000 C
ATOM    122  C3  SGN B   7      21.443  13.916  36.8510  0.00  0.00     0.000 C
ATOM    123  C4  SGN B   7      20.480  14.562  35.8690  0.00  0.00     0.000 C
ATOM    124  C5  SGN B   7      19.042  14.461  36.4030  0.00  0.00     0.000 C
ATOM    125  O5  SGN B   7      18.675  13.085  36.6480  0.00  0.00     0.000 O
ATOM    126   O  SGN B   7      22.782  13.909  36.3430  0.00  0.00     0.000 O
ATOM    128  HD  SGN B   7      22.132  13.470  36.7110  0.00  0.00     0.000 HD
BRANCH 121 130
ATOM    128   N  SGN B   7      21.027  11.089  37.6150  0.00  0.00     0.000 N
ATOM    130  HD  SGN B   7      21.357  10.821  36.8600  0.00  0.00     0.000 HD
ATOM    130   S  SGN B   7      22.394  10.337  38.0130  0.00  0.00     0.000 S
ATOM    131   O  SGN B   7      23.067  11.231  38.8940  0.00  0.00     0.000 OA
ATOM    132   O  SGN B   7      22.074   9.021  38.4340  0.00  0.00     0.000 OA
ATOM    133   O  SGN B   7      23.038  10.155  36.5970  0.00  0.00     0.000 OA
ENDBRANCH 121 130
BRANCH 124 134
ATOM    134   C  SGN B   7      18.003  14.970  35.4480  0.00  0.00     0.000 C
ATOM    135   O  SGN B   7      17.218  13.857  34.9890  0.00  0.00     0.000 O
ATOM    136   S  SGN B   7      15.973  14.199  34.0950  0.00  0.00     0.000 S
ATOM    137   O  SGN B   7      15.413  12.936  33.6770  0.00  0.00     0.000 OA
ATOM    138   O  SGN B   7      16.499  14.975  32.9950  0.00  0.00     0.000 OA
ATOM    139   O  SGN B   7      15.126  14.948  35.0100  0.00  0.00     0.000 OA
ENDBRANCH 124 134
BRANCH 120 140
ATOM    140  O4  IDS B   8      19.007  12.892  38.7160  0.00  0.00     0.000 O
BRANCH 140 144
ATOM    141  C1  IDS B   8      16.364  14.069  40.8590  0.00  0.00     0.000 C
ATOM    142  C2  IDS B   8      17.827  14.561  41.0500  0.00  0.00     0.000 C
ATOM    143  C3  IDS B   8      18.852  13.411  41.0730  0.00  0.00     0.000 C
ATOM    144  C4  IDS B   8      18.578  12.377  39.9820  0.00  0.00     0.000 C
ATOM    145  C5  IDS B   8      17.079  12.042  39.9350  0.00  0.00     0.000 C
ATOM    146  O5  IDS B   8      16.284  13.207  39.7300  0.00  0.00     0.000 O
BRANCH 142 147
ATOM    147   O  IDS B   8      18.199  15.459  39.9250  0.00  0.00     0.000 O
ATOM    148   S  IDS B   8      18.113  17.071  40.0800  0.00  0.00     0.000 S
ATOM    149   O  IDS B   8      17.296  17.358  41.2370  0.00  0.00     0.000 OA
ATOM    150   O  IDS B   8      19.484  17.519  40.2350  0.00  0.00     0.000 OA
ATOM    151   O  IDS B   8      17.497  17.540  38.8530  0.00  0.00     0.000 OA
ENDBRANCH 142 147
BRANCH 145 152
ATOM    152   C  IDS B   8      16.729  11.094  38.8060  0.00  0.00     0.000 C
ATOM    153   O  IDS B   8      17.233   9.977  38.7750  0.00  0.00     0.000 OA
ATOM    154   O  IDS B   8      15.934  11.444  37.9510  0.00  0.00     0.000 OA
ENDBRANCH 145 152
ENDBRANCH 140 144
ENDBRANCH 120 140
ENDBRANCH 119 123
ENDBRANCH 103 119
ENDBRANCH 102 106
ENDBRANCH 82 102
ENDBRANCH 81 85
ENDBRANCH 65 81
ENDBRANCH 64 68
ENDBRANCH 41 64
ENDBRANCH 40 44
ENDBRANCH 24 40
ENDBRANCH 23 27
ENDBRANCH 1 23
TORSDOF 31
ENDMDL
MODEL 71
REMARK VINA RESULT:      -6.7      8.154     18.289
ROOT
ATOM      1  C1  SGN B   1      12.305  18.740  25.6790  0.00  0.00     0.000 C
ATOM      2  C2  SGN B   1      11.819  19.533  26.9030  0.00  0.00     0.000 C
ATOM      3  C3  SGN B   1      12.980  19.812  27.8650  0.00  0.00     0.000 C
ATOM      4  C4  SGN B   1      13.658  18.506  28.2640  0.00  0.00     0.000 C
ATOM      5  C5  SGN B   1      13.985  17.708  27.0040  0.00  0.00     0.000 C
ATOM      6  O5  SGN B   1      12.785  17.520  26.2280  0.00  0.00     0.000 O
ATOM      7   O  SGN B   1      12.518  20.507  29.0170  0.00  0.00     0.000 O
ATOM      9  HD  SGN B   1      12.068  19.769  29.0650  0.00  0.00     0.000 HD
ATOM      9   O  SGN B   1      14.844  18.792  28.9820  0.00  0.00     0.000 O
ATOM     11  HD  SGN B   1      14.394  18.054  29.0290  0.00  0.00     0.000 HD
ENDROOT
BRANCH 2 13
ATOM     11   N  SGN B   1      10.380  19.725  26.6450  0.00  0.00     0.000 N
ATOM     13  HD  SGN B   1      10.965  19.923  26.0390  0.00  0.00     0.000 HD
ATOM     13   S  SGN B   1       9.830  20.847  25.6320  0.00  0.00     0.000 S
ATOM     14   O  SGN B   1      10.909  21.532  25.0340  0.00  0.00     0.000 OA
ATOM     15   O  SGN B   1       8.831  20.258  24.8050  0.00  0.00     0.000 OA
ATOM     16   O  SGN B   1       9.094  21.746  26.6730  0.00  0.00     0.000 OA
ENDBRANCH 2 13
BRANCH 5 17
ATOM     17   C  SGN B   1      14.562  16.341  27.2750  0.00  0.00     0.000 C
ATOM     18   O  SGN B   1      13.532  15.333  27.2550  0.00  0.00     0.000 O
ATOM     19   S  SGN B   1      13.572  14.266  28.4450  0.00  0.00     0.000 S
ATOM     20   O  SGN B   1      12.608  13.252  28.0720  0.00  0.00     0.000 OA
ATOM     21   O  SGN B   1      14.936  13.792  28.4480  0.00  0.00     0.000 OA
ATOM     22   O  SGN B   1      13.203  15.008  29.6310  0.00  0.00     0.000 OA
ENDBRANCH 5 17
BRANCH 1 23
ATOM     23  O4  IDS B   2      12.808  18.939  24.4270  0.00  0.00     0.000 O
BRANCH 23 27
ATOM     24  C1  IDS B   2      16.815  19.899  23.9260  0.00  0.00     0.000 C
ATOM     25  C2  IDS B   2      15.913  21.045  24.4350  0.00  0.00     0.000 C
ATOM     26  C3  IDS B   2      14.547  20.516  24.8640  0.00  0.00     0.000 C
ATOM     27  C4  IDS B   2      13.839  19.714  23.7800  0.00  0.00     0.000 C
ATOM     28  C5  IDS B   2      14.865  18.876  22.9900  0.00  0.00     0.000 C
ATOM     29  O5  IDS B   2      16.058  18.696  23.7380  0.00  0.00     0.000 O
ATOM     30   O  IDS B   2      13.707  21.611  25.2060  0.00  0.00     0.000 O
ATOM     32  HD  IDS B   2      13.368  22.011  24.5160  0.00  0.00     0.000 HD
BRANCH 25 32
ATOM     32   O  IDS B   2      16.505  21.752  25.5980  0.00  0.00     0.000 O
ATOM     33   S  IDS B   2      16.887  23.356  25.5410  0.00  0.00     0.000 S
ATOM     34   O  IDS B   2      17.638  23.637  26.7540  0.00  0.00     0.000 OA
ATOM     35   O  IDS B   2      17.680  23.623  24.3500  0.00  0.00     0.000 OA
ATOM     36   O  IDS B   2      15.624  24.057  25.5300  0.00  0.00     0.000 OA
ENDBRANCH 25 32
BRANCH 28 37
ATOM     37   C  IDS B   2      14.414  17.500  22.4570  0.00  0.00     0.000 C
ATOM     38   O  IDS B   2      14.736  17.316  21.3070  0.00  0.00     0.000 OA
ATOM     39   O  IDS B   2      13.836  16.593  23.1040  0.00  0.00     0.000 OA
ENDBRANCH 28 37
BRANCH 24 40
ATOM     40  O4  SUS B   3      18.042  20.175  23.4380  0.00  0.00     0.000 O
BRANCH 40 44
ATOM     41  C1  SUS B   3      21.537  17.919  23.9290  0.00  0.00     0.000 C
ATOM     42  C2  SUS B   3      20.871  17.894  22.5390  0.00  0.00     0.000 C
ATOM     43  C3  SUS B   3      19.942  19.098  22.4040  0.00  0.00     0.000 C
ATOM     44  C4  SUS B   3      18.957  19.091  23.5610  0.00  0.00     0.000 C
ATOM     45  C5  SUS B   3      19.726  19.212  24.8610  0.00  0.00     0.000 C
ATOM     46  O5  SUS B   3      20.582  18.059  24.9860  0.00  0.00     0.000 O
BRANCH 42 49
ATOM     47   N  SUS B   3      21.919  17.792  21.5080  0.00  0.00     0.000 N
ATOM     49  HD  SUS B   3      21.913  18.397  20.8890  0.00  0.00     0.000 HD
ATOM     49   S  SUS B   3      21.951  16.356  20.7990  0.00  0.00     0.000 S
ATOM     50   O  SUS B   3      20.694  16.075  20.2260  0.00  0.00     0.000 OA
ATOM     51   O  SUS B   3      22.983  16.720  19.7020  0.00  0.00     0.000 OA
ATOM     52   O  SUS B   3      22.488  15.407  21.6920  0.00  0.00     0.000 OA
ENDBRANCH 42 49
BRANCH 43 53
ATOM     53   O  SUS B   3      19.216  18.971  21.1250  0.00  0.00     0.000 O
ATOM     54   S  SUS B   3      19.605  20.034  19.9330  0.00  0.00     0.000 S
ATOM     55   O  SUS B   3      20.931  19.680  19.4480  0.00  0.00     0.000 OA
ATOM     56   O  SUS B   3      18.553  19.858  18.9480  0.00  0.00     0.000 OA
ATOM     57   O  SUS B   3      19.603  21.365  20.5480  0.00  0.00     0.000 OA
ENDBRANCH 43 53
BRANCH 45 58
ATOM     58   C  SUS B   3      18.805  19.313  26.0570  0.00  0.00     0.000 C
ATOM     59   S  SUS B   3      18.638  20.312  28.4150  0.00  0.00     0.000 S
ATOM     60   O  SUS B   3      19.357  20.242  27.0060  0.00  0.00     0.000 O
ATOM     61   O  SUS B   3      19.106  19.144  29.1380  0.00  0.00     0.000 OA
ATOM     62   O  SUS B   3      19.181  21.539  28.9320  0.00  0.00     0.000 OA
ATOM     63   O  SUS B   3      17.247  20.334  28.1320  0.00  0.00     0.000 OA
ENDBRANCH 45 58
BRANCH 41 64
ATOM     64  O4  IDS B   4      22.602  18.782  24.0160  0.00  0.00     0.000 O
BRANCH 64 68
ATOM     65  C1  IDS B   4      26.117  19.682  24.3560  0.00  0.00     0.000 C
ATOM     66  C2  IDS B   4      25.710  18.450  23.5370  0.00  0.00     0.000 C
ATOM     67  C3  IDS B   4      24.693  17.550  24.2190  0.00  0.00     0.000 C
ATOM     68  C4  IDS B   4      23.612  18.328  24.9450  0.00  0.00     0.000 C
ATOM     69  C5  IDS B   4      24.284  19.468  25.7220  0.00  0.00     0.000 C
ATOM     70  O5  IDS B   4      24.945  20.339  24.8020  0.00  0.00     0.000 O
ATOM     71   O  IDS B   4      25.398  16.741  25.1370  0.00  0.00     0.000 O
ATOM     73  HD  IDS B   4      25.314  17.268  24.4560  0.00  0.00     0.000 HD
BRANCH 66 73
ATOM     73   O  IDS B   4      25.066  18.899  22.2950  0.00  0.00     0.000 O
ATOM     74   S  IDS B   4      25.888  18.734  20.9120  0.00  0.00     0.000 S
ATOM     75   O  IDS B   4      27.139  19.439  21.0920  0.00  0.00     0.000 OA
ATOM     76   O  IDS B   4      24.997  19.353  19.9630  0.00  0.00     0.000 OA
ATOM     77   O  IDS B   4      26.055  17.312  20.7300  0.00  0.00     0.000 OA
ENDBRANCH 66 73
BRANCH 69 78
ATOM     78   C  IDS B   4      23.359  20.208  26.6790  0.00  0.00     0.000 C
ATOM     79   O  IDS B   4      22.458  19.580  27.2340  0.00  0.00     0.000 OA
ATOM     80   O  IDS B   4      23.609  21.396  26.9500  0.00  0.00     0.000 OA
ENDBRANCH 69 78
BRANCH 65 81
ATOM     81  O4  SGN B   5      27.015  19.314  25.3110  0.00  0.00     0.000 O
BRANCH 81 85
ATOM     82  C1  SGN B   5      30.436  20.584  27.3900  0.00  0.00     0.000 C
ATOM     83  C2  SGN B   5      29.084  21.134  27.8700  0.00  0.00     0.000 C
ATOM     84  C3  SGN B   5      27.951  20.243  27.3400  0.00  0.00     0.000 C
ATOM     85  C4  SGN B   5      28.055  20.148  25.8280  0.00  0.00     0.000 C
ATOM     86  C5  SGN B   5      29.424  19.571  25.4770  0.00  0.00     0.000 C
ATOM     87  O5  SGN B   5      30.442  20.456  25.9810  0.00  0.00     0.000 O
ATOM     88   O  SGN B   5      26.703  20.774  27.7290  0.00  0.00     0.000 O
ATOM     90  HD  SGN B   5      27.102  20.103  28.1030  0.00  0.00     0.000 HD
BRANCH 83 92
ATOM     90   N  SGN B   5      30.031  21.799  28.7860  0.00  0.00     0.000 N
ATOM     92  HD  SGN B   5      30.687  22.157  28.3490  0.00  0.00     0.000 HD
ATOM     92   S  SGN B   5      29.431  22.698  29.9630  0.00  0.00     0.000 S
ATOM     93   O  SGN B   5      30.584  23.196  30.6520  0.00  0.00     0.000 OA
ATOM     94   O  SGN B   5      28.530  23.603  29.3360  0.00  0.00     0.000 OA
ATOM     95   O  SGN B   5      28.605  21.742  30.7950  0.00  0.00     0.000 OA
ENDBRANCH 83 92
BRANCH 86 96
ATOM     96   C  SGN B   5      29.665  19.406  23.9900  0.00  0.00     0.000 C
ATOM     97   O  SGN B   5      30.096  20.640  23.4120  0.00  0.00     0.000 O
ATOM     98   S  SGN B   5      31.423  20.574  22.5140  0.00  0.00     0.000 S
ATOM     99   O  SGN B   5      31.475  21.890  21.9250  0.00  0.00     0.000 OA
ATOM    100   O  SGN B   5      32.507  20.269  23.3770  0.00  0.00     0.000 OA
ATOM    101   O  SGN B   5      31.159  19.540  21.5660  0.00  0.00     0.000 OA
ENDBRANCH 86 96
BRANCH 82 102
ATOM    102  O4  IDS B   6      30.757  19.396  27.9760  0.00  0.00     0.000 O
BRANCH 102 106
ATOM    103  C1  IDS B   6      33.343  17.774  29.9610  0.00  0.00     0.000 C
ATOM    104  C2  IDS B   6      33.284  19.306  29.8480  0.00  0.00     0.000 C
ATOM    105  C3  IDS B   6      33.107  19.840  28.4400  0.00  0.00     0.000 C
ATOM    106  C4  IDS B   6      32.115  19.027  27.6250  0.00  0.00     0.000 C
ATOM    107  C5  IDS B   6      32.352  17.533  27.8630  0.00  0.00     0.000 C
ATOM    108  O5  IDS B   6      32.268  17.194  29.2480  0.00  0.00     0.000 O
ATOM    109   O  IDS B   6      34.378  19.859  27.8120  0.00  0.00     0.000 O
ATOM    111  HD  IDS B   6      34.838  19.274  28.2540  0.00  0.00     0.000 HD
BRANCH 104 111
ATOM    111   O  IDS B   6      32.120  19.798  30.6000  0.00  0.00     0.000 O
ATOM    112   S  IDS B   6      32.354  20.319  32.0950  0.00  0.00     0.000 S
ATOM    113   O  IDS B   6      32.927  19.179  32.7940  0.00  0.00     0.000 OA
ATOM    114   O  IDS B   6      33.218  21.504  32.0440  0.00  0.00     0.000 OA
ATOM    115   O  IDS B   6      30.983  20.604  32.4600  0.00  0.00     0.000 OA
ENDBRANCH 104 111
BRANCH 107 116
ATOM    116   C  IDS B   6      31.330  16.729  27.0700  0.00  0.00     0.000 C
ATOM    117   O  IDS B   6      31.209  17.005  25.9040  0.00  0.00     0.000 OA
ATOM    118   O  IDS B   6      30.662  15.854  27.5990  0.00  0.00     0.000 OA
ENDBRANCH 107 116
BRANCH 103 119
ATOM    119  O4  SGN B   7      34.633  17.479  29.6590  0.00  0.00     0.000 O
BRANCH 119 123
ATOM    120  C1  SGN B   7      36.852  13.934  29.6090  0.00  0.00     0.000 C
ATOM    121  C2  SGN B   7      36.445  14.540  28.2530  0.00  0.00     0.000 C
ATOM    122  C3  SGN B   7      36.009  16.001  28.4250  0.00  0.00     0.000 C
ATOM    123  C4  SGN B   7      34.928  16.092  29.4890  0.00  0.00     0.000 C
ATOM    124  C5  SGN B   7      35.428  15.457  30.7970  0.00  0.00     0.000 C
ATOM    125  O5  SGN B   7      35.826  14.084  30.5890  0.00  0.00     0.000 O
ATOM    126   O  SGN B   7      35.545  16.500  27.1650  0.00  0.00     0.000 O
ATOM    128  HD  SGN B   7      35.944  15.869  27.6050  0.00  0.00     0.000 HD
BRANCH 121 130
ATOM    128   N  SGN B   7      37.644  13.960  27.6420  0.00  0.00     0.000 N
ATOM    130  HD  SGN B   7      37.339  13.162  27.7840  0.00  0.00     0.000 HD
ATOM    130   S  SGN B   7      37.619  13.269  26.1880  0.00  0.00     0.000 S
ATOM    131   O  SGN B   7      36.982  14.215  25.3370  0.00  0.00     0.000 OA
ATOM    132   O  SGN B   7      38.926  12.805  25.8920  0.00  0.00     0.000 OA
ATOM    133   O  SGN B   7      36.802  11.972  26.5070  0.00  0.00     0.000 OA
ENDBRANCH 121 130
BRANCH 124 134
ATOM    134   C  SGN B   7      34.388  15.395  31.8770  0.00  0.00     0.000 C
ATOM    135   O  SGN B   7      34.993  14.853  33.0640  0.00  0.00     0.000 O
ATOM    136   S  SGN B   7      34.107  14.848  34.3610  0.00  0.00     0.000 S
ATOM    137   O  SGN B   7      34.878  14.172  35.3770  0.00  0.00     0.000 OA
ATOM    138   O  SGN B   7      32.905  14.133  33.9960  0.00  0.00     0.000 OA
ATOM    139   O  SGN B   7      33.911  16.267  34.6120  0.00  0.00     0.000 OA
ENDBRANCH 124 134
BRANCH 120 140
ATOM    140  O4  IDS B   8      37.910  14.247  30.3660  0.00  0.00     0.000 O
BRANCH 140 144
ATOM    141  C1  IDS B   8      41.265  13.891  31.6220  0.00  0.00     0.000 C
ATOM    142  C2  IDS B   8      40.414  12.644  31.2500  0.00  0.00     0.000 C
ATOM    143  C3  IDS B   8      38.997  12.678  31.8520  0.00  0.00     0.000 C
ATOM    144  C4  IDS B   8      38.350  14.056  31.7160  0.00  0.00     0.000 C
ATOM    145  C5  IDS B   8      39.354  15.152  32.1040  0.00  0.00     0.000 C
ATOM    146  O5  IDS B   8      40.543  15.079  31.3220  0.00  0.00     0.000 O
BRANCH 142 147
ATOM    147   O  IDS B   8      40.263  12.569  29.7730  0.00  0.00     0.000 O
ATOM    148   S  IDS B   8      40.156  11.140  29.0140  0.00  0.00     0.000 S
ATOM    149   O  IDS B   8      40.615  10.121  29.9310  0.00  0.00     0.000 OA
ATOM    150   O  IDS B   8      38.755  10.991  28.6660  0.00  0.00     0.000 OA
ATOM    151   O  IDS B   8      41.021  11.256  27.8560  0.00  0.00     0.000 OA
ENDBRANCH 142 147
BRANCH 145 152
ATOM    152   C  IDS B   8      38.803  16.548  31.8950  0.00  0.00     0.000 C
ATOM    153   O  IDS B   8      37.967  16.991  32.6750  0.00  0.00     0.000 OA
ATOM    154   O  IDS B   8      39.210  17.224  30.9670  0.00  0.00     0.000 OA
ENDBRANCH 145 152
ENDBRANCH 140 144
ENDBRANCH 120 140
ENDBRANCH 119 123
ENDBRANCH 103 119
ENDBRANCH 102 106
ENDBRANCH 82 102
ENDBRANCH 81 85
ENDBRANCH 65 81
ENDBRANCH 64 68
ENDBRANCH 41 64
ENDBRANCH 40 44
ENDBRANCH 24 40
ENDBRANCH 23 27
ENDBRANCH 1 23
TORSDOF 31
ENDMDL
MODEL 72
REMARK VINA RESULT:      -6.7      8.972     12.109
ROOT
ATOM      1  C1  SGN B   1      38.170  17.970  25.6890  0.00  0.00     0.000 C
ATOM      2  C2  SGN B   1      37.943  17.654  24.2020  0.00  0.00     0.000 C
ATOM      3  C3  SGN B   1      36.536  17.091  23.9750  0.00  0.00     0.000 C
ATOM      4  C4  SGN B   1      36.309  15.869  24.8590  0.00  0.00     0.000 C
ATOM      5  C5  SGN B   1      36.689  16.216  26.2970  0.00  0.00     0.000 C
ATOM      6  O5  SGN B   1      38.042  16.709  26.3320  0.00  0.00     0.000 O
ATOM      7   O  SGN B   1      36.345  16.759  22.6050  0.00  0.00     0.000 O
ATOM      9  HD  SGN B   1      37.003  16.239  22.8220  0.00  0.00     0.000 HD
ATOM      9   O  SGN B   1      34.948  15.486  24.7920  0.00  0.00     0.000 O
ATOM     11  HD  SGN B   1      35.606  14.967  25.0090  0.00  0.00     0.000 HD
ENDROOT
BRANCH 2 13
ATOM     11   N  SGN B   1      39.196  18.043  23.5260  0.00  0.00     0.000 N
ATOM     13  HD  SGN B   1      38.817  18.577  24.0930  0.00  0.00     0.000 HD
ATOM     13   S  SGN B   1      39.576  19.580  23.2400  0.00  0.00     0.000 S
ATOM     14   O  SGN B   1      38.584  20.432  23.7670  0.00  0.00     0.000 OA
ATOM     15   O  SGN B   1      40.939  19.781  23.6050  0.00  0.00     0.000 OA
ATOM     16   O  SGN B   1      39.519  19.537  21.6820  0.00  0.00     0.000 OA
ENDBRANCH 2 13
BRANCH 5 17
ATOM     17   C  SGN B   1      36.610  15.049  27.2500  0.00  0.00     0.000 C
ATOM     18   O  SGN B   1      37.826  14.275  27.2170  0.00  0.00     0.000 O
ATOM     19   S  SGN B   1      37.644  12.687  27.1540  0.00  0.00     0.000 S
ATOM     20   O  SGN B   1      38.971  12.149  27.3670  0.00  0.00     0.000 OA
ATOM     21   O  SGN B   1      36.722  12.395  28.2260  0.00  0.00     0.000 OA
ATOM     22   O  SGN B   1      37.116  12.420  25.8340  0.00  0.00     0.000 OA
ENDBRANCH 5 17
BRANCH 1 23
ATOM     23  O4  IDS B   2      38.020  18.988  26.5850  0.00  0.00     0.000 O
BRANCH 23 27
ATOM     24  C1  IDS B   2      34.074  19.528  27.7550  0.00  0.00     0.000 C
ATOM     25  C2  IDS B   2      34.545  20.401  26.5710  0.00  0.00     0.000 C
ATOM     26  C3  IDS B   2      35.891  19.919  26.0370  0.00  0.00     0.000 C
ATOM     27  C4  IDS B   2      36.972  19.832  27.1060  0.00  0.00     0.000 C
ATOM     28  C5  IDS B   2      36.362  19.344  28.4350  0.00  0.00     0.000 C
ATOM     29  O5  IDS B   2      35.131  18.673  28.2120  0.00  0.00     0.000 O
ATOM     30   O  IDS B   2      36.348  20.820  25.0350  0.00  0.00     0.000 O
ATOM     32  HD  IDS B   2      36.701  21.541  25.3600  0.00  0.00     0.000 HD
BRANCH 25 32
ATOM     32   O  IDS B   2      33.582  20.383  25.4420  0.00  0.00     0.000 O
ATOM     33   S  IDS B   2      32.967  21.772  24.7980  0.00  0.00     0.000 S
ATOM     34   O  IDS B   2      31.910  21.363  23.8870  0.00  0.00     0.000 OA
ATOM     35   O  IDS B   2      32.452  22.615  25.8680  0.00  0.00     0.000 OA
ATOM     36   O  IDS B   2      34.063  22.391  24.0890  0.00  0.00     0.000 OA
ENDBRANCH 25 32
BRANCH 28 37
ATOM     37   C  IDS B   2      37.237  18.462  29.3490  0.00  0.00     0.000 C
ATOM     38   O  IDS B   2      38.159  19.068  29.8410  0.00  0.00     0.000 OA
ATOM     39   O  IDS B   2      37.039  17.259  29.6520  0.00  0.00     0.000 OA
ENDBRANCH 28 37
BRANCH 24 40
ATOM     40  O4  SUS B   3      32.935  19.837  28.4080  0.00  0.00     0.000 O
BRANCH 40 44
ATOM     41  C1  SUS B   3      29.935  17.352  29.9490  0.00  0.00     0.000 C
ATOM     42  C2  SUS B   3      31.352  17.196  30.5380  0.00  0.00     0.000 C
ATOM     43  C3  SUS B   3      32.165  18.452  30.2330  0.00  0.00     0.000 C
ATOM     44  C4  SUS B   3      32.143  18.700  28.7330  0.00  0.00     0.000 C
ATOM     45  C5  SUS B   3      30.711  18.928  28.2940  0.00  0.00     0.000 C
ATOM     46  O5  SUS B   3      29.960  17.728  28.5670  0.00  0.00     0.000 O
BRANCH 42 49
ATOM     47   N  SUS B   3      30.888  15.866  30.9670  0.00  0.00     0.000 N
ATOM     49  HD  SUS B   3      30.037  15.777  31.1000  0.00  0.00     0.000 HD
ATOM     49   S  SUS B   3      31.653  15.336  32.2710  0.00  0.00     0.000 S
ATOM     50   O  SUS B   3      31.495  16.256  33.3270  0.00  0.00     0.000 OA
ATOM     51   O  SUS B   3      30.769  14.083  32.5020  0.00  0.00     0.000 OA
ATOM     52   O  SUS B   3      32.966  14.962  31.9230  0.00  0.00     0.000 OA
ENDBRANCH 42 49
BRANCH 43 53
ATOM     53   O  SUS B   3      33.550  18.217  30.6830  0.00  0.00     0.000 O
ATOM     54   S  SUS B   3      34.098  19.132  31.9340  0.00  0.00     0.000 S
ATOM     55   O  SUS B   3      33.415  18.679  33.1370  0.00  0.00     0.000 OA
ATOM     56   O  SUS B   3      35.530  18.891  31.9460  0.00  0.00     0.000 OA
ATOM     57   O  SUS B   3      33.748  20.520  31.6160  0.00  0.00     0.000 OA
ENDBRANCH 43 53
BRANCH 45 58
ATOM     58   C  SUS B   3      30.617  19.281  26.8260  0.00  0.00     0.000 C
ATOM     59   S  SUS B   3      30.118  18.271  24.5200  0.00  0.00     0.000 S
ATOM     60   O  SUS B   3      30.085  18.161  26.1000  0.00  0.00     0.000 O
ATOM     61   O  SUS B   3      31.491  17.985  24.1490  0.00  0.00     0.000 OA
ATOM     62   O  SUS B   3      29.213  17.213  24.1590  0.00  0.00     0.000 OA
ATOM     63   O  SUS B   3      29.668  19.584  24.2220  0.00  0.00     0.000 OA
ENDBRANCH 45 58
BRANCH 41 64
ATOM     64  O4  IDS B   4      29.095  18.114  30.7230  0.00  0.00     0.000 O
BRANCH 64 68
ATOM     65  C1  IDS B   4      25.871  18.390  32.3970  0.00  0.00     0.000 C
ATOM     66  C2  IDS B   4      26.418  17.014  31.9980  0.00  0.00     0.000 C
ATOM     67  C3  IDS B   4      26.965  16.943  30.5820  0.00  0.00     0.000 C
ATOM     68  C4  IDS B   4      27.753  18.179  30.1910  0.00  0.00     0.000 C
ATOM     69  C5  IDS B   4      26.969  19.412  30.6590  0.00  0.00     0.000 C
ATOM     70  O5  IDS B   4      26.838  19.375  32.0820  0.00  0.00     0.000 O
ATOM     71   O  IDS B   4      25.862  16.786  29.7140  0.00  0.00     0.000 O
ATOM     73  HD  IDS B   4      26.273  16.770  30.4760  0.00  0.00     0.000 HD
BRANCH 66 73
ATOM     73   O  IDS B   4      27.552  16.684  32.8720  0.00  0.00     0.000 O
ATOM     74   S  IDS B   4      27.417  15.390  33.8330  0.00  0.00     0.000 S
ATOM     75   O  IDS B   4      26.230  15.596  34.6340  0.00  0.00     0.000 OA
ATOM     76   O  IDS B   4      28.647  15.447  34.5820  0.00  0.00     0.000 OA
ATOM     77   O  IDS B   4      27.316  14.258  32.9430  0.00  0.00     0.000 OA
ENDBRANCH 66 73
BRANCH 69 78
ATOM     78   C  IDS B   4      27.519  20.738  30.1500  0.00  0.00     0.000 C
ATOM     79   O  IDS B   4      27.069  21.201  29.1020  0.00  0.00     0.000 OA
ATOM     80   O  IDS B   4      28.327  21.361  30.8630  0.00  0.00     0.000 OA
ENDBRANCH 69 78
BRANCH 65 81
ATOM     81  O4  SGN B   5      24.629  18.556  31.8620  0.00  0.00     0.000 O
BRANCH 81 85
ATOM     82  C1  SGN B   5      20.819  19.774  33.1400  0.00  0.00     0.000 C
ATOM     83  C2  SGN B   5      21.476  20.598  32.0230  0.00  0.00     0.000 C
ATOM     84  C3  SGN B   5      22.598  19.777  31.3720  0.00  0.00     0.000 C
ATOM     85  C4  SGN B   5      23.579  19.332  32.4430  0.00  0.00     0.000 C
ATOM     86  C5  SGN B   5      22.818  18.508  33.4780  0.00  0.00     0.000 C
ATOM     87  O5  SGN B   5      21.795  19.334  34.0650  0.00  0.00     0.000 O
ATOM     88   O  SGN B   5      23.245  20.549  30.3840  0.00  0.00     0.000 O
ATOM     90  HD  SGN B   5      22.658  19.930  30.2340  0.00  0.00     0.000 HD
BRANCH 83 92
ATOM     90   N  SGN B   5      20.684  21.786  32.3950  0.00  0.00     0.000 N
ATOM     92  HD  SGN B   5      21.134  22.309  32.9190  0.00  0.00     0.000 HD
ATOM     92   S  SGN B   5      19.858  22.528  31.2460  0.00  0.00     0.000 S
ATOM     93   O  SGN B   5      19.217  23.619  31.9180  0.00  0.00     0.000 OA
ATOM     94   O  SGN B   5      20.791  22.783  30.2030  0.00  0.00     0.000 OA
ATOM     95   O  SGN B   5      18.885  21.487  30.7380  0.00  0.00     0.000 OA
ENDBRANCH 83 92
BRANCH 86 96
ATOM     96   C  SGN B   5      23.678  17.982  34.6080  0.00  0.00     0.000 C
ATOM     97   O  SGN B   5      24.081  19.050  35.4700  0.00  0.00     0.000 O
ATOM     98   S  SGN B   5      23.823  18.828  37.0370  0.00  0.00     0.000 S
ATOM     99   O  SGN B   5      24.505  19.952  37.6330  0.00  0.00     0.000 OA
ATOM    100   O  SGN B   5      22.419  18.812  37.2390  0.00  0.00     0.000 OA
ATOM    101   O  SGN B   5      24.440  17.574  37.3240  0.00  0.00     0.000 OA
ENDBRANCH 86 96
BRANCH 82 102
ATOM    102  O4  IDS B   6      20.107  18.715  32.6610  0.00  0.00     0.000 O
BRANCH 102 106
ATOM    103  C1  IDS B   6      17.199  16.583  32.1530  0.00  0.00     0.000 C
ATOM    104  C2  IDS B   6      17.138  18.085  31.8330  0.00  0.00     0.000 C
ATOM    105  C3  IDS B   6      17.701  18.995  32.9080  0.00  0.00     0.000 C
ATOM    106  C4  IDS B   6      18.975  18.451  33.5280  0.00  0.00     0.000 C
ATOM    107  C5  IDS B   6      18.825  16.949  33.7860  0.00  0.00     0.000 C
ATOM    108  O5  IDS B   6      18.498  16.234  32.5940  0.00  0.00     0.000 O
ATOM    109   O  IDS B   6      16.700  19.182  33.8950  0.00  0.00     0.000 O
ATOM    111  HD  IDS B   6      16.184  18.493  33.8020  0.00  0.00     0.000 HD
BRANCH 104 111
ATOM    111   O  IDS B   6      17.948  18.352  30.6340  0.00  0.00     0.000 O
ATOM    112   S  IDS B   6      17.185  18.596  29.2490  0.00  0.00     0.000 S
ATOM    113   O  IDS B   6      16.410  17.383  29.0390  0.00  0.00     0.000 OA
ATOM    114   O  IDS B   6      16.386  19.821  29.3680  0.00  0.00     0.000 OA
ATOM    115   O  IDS B   6      18.329  18.721  28.3710  0.00  0.00     0.000 OA
ENDBRANCH 104 111
BRANCH 107 116
ATOM    116   C  IDS B   6      20.121  16.407  34.3750  0.00  0.00     0.000 C
ATOM    117   O  IDS B   6      20.375  16.722  35.5100  0.00  0.00     0.000 OA
ATOM    118   O  IDS B   6      20.868  15.695  33.7210  0.00  0.00     0.000 OA
ENDBRANCH 107 116
BRANCH 103 119
ATOM    119  O4  SGN B   7      16.109  16.377  32.9350  0.00  0.00     0.000 O
BRANCH 119 123
ATOM    120  C1  SGN B   7      13.569  13.174  33.8200  0.00  0.00     0.000 C
ATOM    121  C2  SGN B   7      14.958  13.187  34.4840  0.00  0.00     0.000 C
ATOM    122  C3  SGN B   7      15.588  14.583  34.3880  0.00  0.00     0.000 C
ATOM    123  C4  SGN B   7      15.593  15.045  32.9400  0.00  0.00     0.000 C
ATOM    124  C5  SGN B   7      14.167  14.990  32.3690  0.00  0.00     0.000 C
ATOM    125  O5  SGN B   7      13.615  13.658  32.4790  0.00  0.00     0.000 O
ATOM    126   O  SGN B   7      16.914  14.534  34.9250  0.00  0.00     0.000 O
ATOM    128  HD  SGN B   7      16.152  14.139  34.8110  0.00  0.00     0.000 HD
BRANCH 121 130
ATOM    128   N  SGN B   7      14.672  11.823  34.9340  0.00  0.00     0.000 N
ATOM    130  HD  SGN B   7      15.492  11.592  34.7790  0.00  0.00     0.000 HD
ATOM    130   S  SGN B   7      15.206  11.252  36.3420  0.00  0.00     0.000 S
ATOM    131   O  SGN B   7      14.832  12.230  37.3060  0.00  0.00     0.000 OA
ATOM    132   O  SGN B   7      14.767   9.910  36.4750  0.00  0.00     0.000 OA
ATOM    133   O  SGN B   7      16.738  11.139  36.0370  0.00  0.00     0.000 OA
ENDBRANCH 121 130
BRANCH 124 134
ATOM    134   C  SGN B   7      14.085  15.318  30.9070  0.00  0.00     0.000 C
ATOM    135   O  SGN B   7      13.537  14.185  30.2130  0.00  0.00     0.000 O
ATOM    136   S  SGN B   7      13.227  14.383  28.6860  0.00  0.00     0.000 S
ATOM    137   O  SGN B   7      12.791  13.099  28.1900  0.00  0.00     0.000 OA
ATOM    138   O  SGN B   7      14.473  14.820  28.1000  0.00  0.00     0.000 OA
ATOM    139   O  SGN B   7      12.182  15.395  28.7070  0.00  0.00     0.000 OA
ENDBRANCH 124 134
BRANCH 120 140
ATOM    140  O4  IDS B   8      12.456  13.794  34.2270  0.00  0.00     0.000 O
BRANCH 140 144
ATOM    141  C1  IDS B   8      10.495  16.459  35.6470  0.00  0.00     0.000 C
ATOM    142  C2  IDS B   8      11.912  16.129  36.1960  0.00  0.00     0.000 C
ATOM    143  C3  IDS B   8      12.117  14.628  36.4730  0.00  0.00     0.000 C
ATOM    144  C4  IDS B   8      11.562  13.757  35.3470  0.00  0.00     0.000 C
ATOM    145  C5  IDS B   8      10.171  14.256  34.9280  0.00  0.00     0.000 C
ATOM    146  O5  IDS B   8      10.199  15.625  34.5330  0.00  0.00     0.000 O
BRANCH 142 147
ATOM    147   O  IDS B   8      12.937  16.537  35.2010  0.00  0.00     0.000 O
ATOM    148   S  IDS B   8      13.708  17.959  35.3290  0.00  0.00     0.000 S
ATOM    149   O  IDS B   8      12.954  18.784  36.2470  0.00  0.00     0.000 OA
ATOM    150   O  IDS B   8      15.034  17.637  35.8230  0.00  0.00     0.000 OA
ATOM    151   O  IDS B   8      13.718  18.510  33.9880  0.00  0.00     0.000 OA
ENDBRANCH 142 147
BRANCH 145 152
ATOM    152   C  IDS B   8       9.608  13.492  33.7460  0.00  0.00     0.000 C
ATOM    153   O  IDS B   8       9.422  12.285  33.8410  0.00  0.00     0.000 OA
ATOM    154   O  IDS B   8       9.328  14.090  32.7220  0.00  0.00     0.000 OA
ENDBRANCH 145 152
ENDBRANCH 140 144
ENDBRANCH 120 140
ENDBRANCH 119 123
ENDBRANCH 103 119
ENDBRANCH 102 106
ENDBRANCH 82 102
ENDBRANCH 81 85
ENDBRANCH 65 81
ENDBRANCH 64 68
ENDBRANCH 41 64
ENDBRANCH 40 44
ENDBRANCH 24 40
ENDBRANCH 23 27
ENDBRANCH 1 23
TORSDOF 31
ENDMDL
MODEL 73
REMARK VINA RESULT:      -6.7      8.901     18.161
ROOT
ATOM      1  C1  SGN B   1      12.824  18.341  22.3420  0.00  0.00     0.000 C
ATOM      2  C2  SGN B   1      11.690  17.306  22.4160  0.00  0.00     0.000 C
ATOM      3  C3  SGN B   1      11.495  16.615  21.0620  0.00  0.00     0.000 C
ATOM      4  C4  SGN B   1      11.249  17.654  19.9720  0.00  0.00     0.000 C
ATOM      5  C5  SGN B   1      12.335  18.725  20.0500  0.00  0.00     0.000 C
ATOM      6  O5  SGN B   1      12.369  19.281  21.3790  0.00  0.00     0.000 O
ATOM      7   O  SGN B   1      10.415  15.691  21.1230  0.00  0.00     0.000 O
ATOM      9  HD  SGN B   1      10.017  16.438  21.3030  0.00  0.00     0.000 HD
ATOM      9   O  SGN B   1      11.276  17.022  18.7060  0.00  0.00     0.000 O
ATOM     11  HD  SGN B   1      10.878  17.769  18.8860  0.00  0.00     0.000 HD
ENDROOT
BRANCH 2 13
ATOM     11   N  SGN B   1      11.268  17.434  23.8240  0.00  0.00     0.000 N
ATOM     13  HD  SGN B   1      12.096  17.275  23.6260  0.00  0.00     0.000 HD
ATOM     13   S  SGN B   1      12.033  16.680  25.0220  0.00  0.00     0.000 S
ATOM     14   O  SGN B   1      13.139  15.965  24.5180  0.00  0.00     0.000 OA
ATOM     15   O  SGN B   1      12.224  17.606  26.0880  0.00  0.00     0.000 OA
ATOM     16   O  SGN B   1      10.882  15.718  25.4500  0.00  0.00     0.000 OA
ENDBRANCH 2 13
BRANCH 5 17
ATOM     17   C  SGN B   1      12.137  19.870  19.0880  0.00  0.00     0.000 C
ATOM     18   O  SGN B   1      10.742  20.213  18.9760  0.00  0.00     0.000 O
ATOM     19   S  SGN B   1      10.194  20.449  17.4920  0.00  0.00     0.000 S
ATOM     20   O  SGN B   1       8.867  21.000  17.6650  0.00  0.00     0.000 OA
ATOM     21   O  SGN B   1      11.135  21.379  16.9130  0.00  0.00     0.000 OA
ATOM     22   O  SGN B   1      10.203  19.141  16.8750  0.00  0.00     0.000 OA
ENDBRANCH 5 17
BRANCH 1 23
ATOM     23  O4  IDS B   2      14.173  18.439  22.5160  0.00  0.00     0.000 O
BRANCH 23 27
ATOM     24  C1  IDS B   2      17.962  19.420  23.8990  0.00  0.00     0.000 C
ATOM     25  C2  IDS B   2      16.788  19.853  24.8050  0.00  0.00     0.000 C
ATOM     26  C3  IDS B   2      15.485  19.193  24.3630  0.00  0.00     0.000 C
ATOM     27  C4  IDS B   2      15.150  19.430  22.8970  0.00  0.00     0.000 C
ATOM     28  C5  IDS B   2      16.440  19.412  22.0520  0.00  0.00     0.000 C
ATOM     29  O5  IDS B   2      17.484  18.734  22.7350  0.00  0.00     0.000 O
ATOM     30   O  IDS B   2      14.411  19.711  25.1390  0.00  0.00     0.000 O
ATOM     32  HD  IDS B   2      14.141  20.490  24.8720  0.00  0.00     0.000 HD
BRANCH 25 32
ATOM     32   O  IDS B   2      17.013  19.493  26.2270  0.00  0.00     0.000 O
ATOM     33   S  IDS B   2      16.851  17.944  26.7700  0.00  0.00     0.000 S
ATOM     34   O  IDS B   2      16.922  18.014  28.2210  0.00  0.00     0.000 OA
ATOM     35   O  IDS B   2      15.572  17.407  26.3260  0.00  0.00     0.000 OA
ATOM     36   O  IDS B   2      17.973  17.218  26.2220  0.00  0.00     0.000 OA
ENDBRANCH 25 32
BRANCH 28 37
ATOM     37   C  IDS B   2      16.354  18.853  20.6170  0.00  0.00     0.000 C
ATOM     38   O  IDS B   2      16.667  17.687  20.5510  0.00  0.00     0.000 OA
ATOM     39   O  IDS B   2      15.948  19.456  19.5940  0.00  0.00     0.000 OA
ENDBRANCH 28 37
BRANCH 24 40
ATOM     40  O4  SUS B   3      19.188  19.950  24.0880  0.00  0.00     0.000 O
BRANCH 40 44
ATOM     41  C1  SUS B   3      22.854  18.079  24.8700  0.00  0.00     0.000 C
ATOM     42  C2  SUS B   3      22.139  17.708  23.5550  0.00  0.00     0.000 C
ATOM     43  C3  SUS B   3      21.121  18.793  23.2120  0.00  0.00     0.000 C
ATOM     44  C4  SUS B   3      20.183  18.979  24.3940  0.00  0.00     0.000 C
ATOM     45  C5  SUS B   3      20.990  19.430  25.5940  0.00  0.00     0.000 C
ATOM     46  O5  SUS B   3      21.932  18.388  25.9210  0.00  0.00     0.000 O
BRANCH 42 49
ATOM     47   N  SUS B   3      23.311  17.385  22.7240  0.00  0.00     0.000 N
ATOM     49  HD  SUS B   3      23.484  17.927  22.0710  0.00  0.00     0.000 HD
ATOM     49   S  SUS B   3      23.260  15.896  22.1350  0.00  0.00     0.000 S
ATOM     50   O  SUS B   3      22.082  15.719  21.3810  0.00  0.00     0.000 OA
ATOM     51   O  SUS B   3      24.491  16.030  21.2020  0.00  0.00     0.000 OA
ATOM     52   O  SUS B   3      23.518  14.975  23.1700  0.00  0.00     0.000 OA
ENDBRANCH 42 49
BRANCH 43 53
ATOM     53   O  SUS B   3      20.357  18.344  22.0320  0.00  0.00     0.000 O
ATOM     54   S  SUS B   3      20.642  19.123  20.6130  0.00  0.00     0.000 S
ATOM     55   O  SUS B   3      21.968  18.729  20.1580  0.00  0.00     0.000 OA
ATOM     56   O  SUS B   3      19.568  18.677  19.7440  0.00  0.00     0.000 OA
ATOM     57   O  SUS B   3      20.588  20.558  20.9100  0.00  0.00     0.000 OA
ENDBRANCH 43 53
BRANCH 45 58
ATOM     58   C  SUS B   3      20.111  19.733  26.7870  0.00  0.00     0.000 C
ATOM     59   S  SUS B   3      20.167  20.721  29.1550  0.00  0.00     0.000 S
ATOM     60   O  SUS B   3      20.858  20.498  27.7480  0.00  0.00     0.000 O
ATOM     61   O  SUS B   3      20.342  19.470  29.8670  0.00  0.00     0.000 OA
ATOM     62   O  SUS B   3      20.979  21.782  29.6870  0.00  0.00     0.000 OA
ATOM     63   O  SUS B   3      18.822  21.073  28.8660  0.00  0.00     0.000 OA
ENDBRANCH 45 58
BRANCH 41 64
ATOM     64  O4  IDS B   4      23.856  19.005  24.7120  0.00  0.00     0.000 O
BRANCH 64 68
ATOM     65  C1  IDS B   4      27.285  19.256  25.9180  0.00  0.00     0.000 C
ATOM     66  C2  IDS B   4      26.439  18.019  26.2480  0.00  0.00     0.000 C
ATOM     67  C3  IDS B   4      25.034  18.331  26.7340  0.00  0.00     0.000 C
ATOM     68  C4  IDS B   4      24.386  19.472  25.9720  0.00  0.00     0.000 C
ATOM     69  C5  IDS B   4      25.422  20.594  25.8210  0.00  0.00     0.000 C
ATOM     70  O5  IDS B   4      26.537  20.108  25.0700  0.00  0.00     0.000 O
ATOM     71   O  IDS B   4      25.128  18.664  28.1040  0.00  0.00     0.000 O
ATOM     73  HD  IDS B   4      25.401  18.325  27.3550  0.00  0.00     0.000 HD
BRANCH 66 73
ATOM     73   O  IDS B   4      26.262  17.227  25.0230  0.00  0.00     0.000 O
ATOM     74   S  IDS B   4      26.980  15.780  24.9450  0.00  0.00     0.000 S
ATOM     75   O  IDS B   4      28.390  16.009  25.1760  0.00  0.00     0.000 OA
ATOM     76   O  IDS B   4      26.665  15.364  23.6010  0.00  0.00     0.000 OA
ATOM     77   O  IDS B   4      26.355  14.984  25.9740  0.00  0.00     0.000 OA
ENDBRANCH 66 73
BRANCH 69 78
ATOM     78   C  IDS B   4      24.861  21.898  25.2710  0.00  0.00     0.000 C
ATOM     79   O  IDS B   4      25.056  22.173  24.0870  0.00  0.00     0.000 OA
ATOM     80   O  IDS B   4      24.135  22.592  26.0060  0.00  0.00     0.000 OA
ENDBRANCH 69 78
BRANCH 65 81
ATOM     81  O4  SGN B   5      27.758  19.801  27.0730  0.00  0.00     0.000 O
BRANCH 81 85
ATOM     82  C1  SGN B   5      31.746  20.546  28.1600  0.00  0.00     0.000 C
ATOM     83  C2  SGN B   5      30.669  21.422  28.8160  0.00  0.00     0.000 C
ATOM     84  C3  SGN B   5      29.301  20.739  28.6850  0.00  0.00     0.000 C
ATOM     85  C4  SGN B   5      29.024  20.448  27.2200  0.00  0.00     0.000 C
ATOM     86  C5  SGN B   5      30.143  19.556  26.6890  0.00  0.00     0.000 C
ATOM     87  O5  SGN B   5      31.394  20.256  26.8200  0.00  0.00     0.000 O
ATOM     88   O  SGN B   5      28.297  21.564  29.2350  0.00  0.00     0.000 O
ATOM     90  HD  SGN B   5      28.645  20.872  29.6210  0.00  0.00     0.000 HD
BRANCH 83 92
ATOM     90   N  SGN B   5      31.559  21.619  29.9770  0.00  0.00     0.000 N
ATOM     92  HD  SGN B   5      32.280  21.147  29.8980  0.00  0.00     0.000 HD
ATOM     92   S  SGN B   5      31.779  23.110  30.5100  0.00  0.00     0.000 S
ATOM     93   O  SGN B   5      32.679  22.961  31.6140  0.00  0.00     0.000 OA
ATOM     94   O  SGN B   5      32.165  23.873  29.3730  0.00  0.00     0.000 OA
ATOM     95   O  SGN B   5      30.401  23.579  30.9220  0.00  0.00     0.000 OA
ENDBRANCH 83 92
BRANCH 86 96
ATOM     96   C  SGN B   5      29.991  19.172  25.2310  0.00  0.00     0.000 C
ATOM     97   O  SGN B   5      30.382  20.255  24.3840  0.00  0.00     0.000 O
ATOM     98   S  SGN B   5      31.432  19.900  23.2250  0.00  0.00     0.000 S
ATOM     99   O  SGN B   5      31.463  21.112  22.4420  0.00  0.00     0.000 OA
ATOM    100   O  SGN B   5      32.662  19.569  23.8510  0.00  0.00     0.000 OA
ATOM    101   O  SGN B   5      30.843  18.798  22.5370  0.00  0.00     0.000 OA
ENDBRANCH 86 96
BRANCH 82 102
ATOM    102  O4  IDS B   6      31.976  19.393  28.8500  0.00  0.00     0.000 O
BRANCH 102 106
ATOM    103  C1  IDS B   6      34.179  17.080  30.5980  0.00  0.00     0.000 C
ATOM    104  C2  IDS B   6      34.406  18.598  30.6830  0.00  0.00     0.000 C
ATOM    105  C3  IDS B   6      34.357  19.330  29.3560  0.00  0.00     0.000 C
ATOM    106  C4  IDS B   6      33.249  18.827  28.4480  0.00  0.00     0.000 C
ATOM    107  C5  IDS B   6      33.202  17.296  28.4900  0.00  0.00     0.000 C
ATOM    108  O5  IDS B   6      33.030  16.805  29.8200  0.00  0.00     0.000 O
ATOM    109   O  IDS B   6      35.622  19.194  28.7300  0.00  0.00     0.000 O
ATOM    111  HD  IDS B   6      35.958  18.482  29.0910  0.00  0.00     0.000 HD
BRANCH 104 111
ATOM    111   O  IDS B   6      33.337  19.197  31.4970  0.00  0.00     0.000 O
ATOM    112   S  IDS B   6      33.691  19.645  32.9920  0.00  0.00     0.000 S
ATOM    113   O  IDS B   6      34.158  18.429  33.6380  0.00  0.00     0.000 OA
ATOM    114   O  IDS B   6      34.683  20.725  32.9310  0.00  0.00     0.000 OA
ATOM    115   O  IDS B   6      32.379  20.074  33.4250  0.00  0.00     0.000 OA
ENDBRANCH 104 111
BRANCH 107 116
ATOM    116   C  IDS B   6      32.065  16.803  27.6050  0.00  0.00     0.000 C
ATOM    117   O  IDS B   6      32.256  16.822  26.4150  0.00  0.00     0.000 OA
ATOM    118   O  IDS B   6      31.009  16.417  28.0830  0.00  0.00     0.000 OA
ENDBRANCH 107 116
BRANCH 103 119
ATOM    119  O4  SGN B   7      35.399  16.592  30.2540  0.00  0.00     0.000 O
BRANCH 119 123
ATOM    120  C1  SGN B   7      37.160  12.803  30.4330  0.00  0.00     0.000 C
ATOM    121  C2  SGN B   7      36.715  13.318  29.0510  0.00  0.00     0.000 C
ATOM    122  C3  SGN B   7      36.475  14.833  29.0930  0.00  0.00     0.000 C
ATOM    123  C4  SGN B   7      35.508  15.169  30.2160  0.00  0.00     0.000 C
ATOM    124  C5  SGN B   7      36.036  14.608  31.5460  0.00  0.00     0.000 C
ATOM    125  O5  SGN B   7      36.246  13.181  31.4610  0.00  0.00     0.000 O
ATOM    126   O  SGN B   7      35.969  15.261  27.8230  0.00  0.00     0.000 O
ATOM    128  HD  SGN B   7      36.325  14.630  28.2990  0.00  0.00     0.000 HD
BRANCH 121 130
ATOM    128   N  SGN B   7      37.803  12.628  28.3540  0.00  0.00     0.000 N
ATOM    130  HD  SGN B   7      37.536  11.869  28.6750  0.00  0.00     0.000 HD
ATOM    130   S  SGN B   7      37.546  11.707  27.0580  0.00  0.00     0.000 S
ATOM    131   O  SGN B   7      36.764  12.509  26.1810  0.00  0.00     0.000 OA
ATOM    132   O  SGN B   7      38.792  11.182  26.6300  0.00  0.00     0.000 OA
ATOM    133   O  SGN B   7      36.810  10.492  27.7180  0.00  0.00     0.000 OA
ENDBRANCH 121 130
BRANCH 124 134
ATOM    134   C  SGN B   7      35.093  14.788  32.6990  0.00  0.00     0.000 C
ATOM    135   O  SGN B   7      35.590  14.038  33.8200  0.00  0.00     0.000 O
ATOM    136   S  SGN B   7      34.824  14.219  35.1790  0.00  0.00     0.000 S
ATOM    137   O  SGN B   7      35.431  13.301  36.1130  0.00  0.00     0.000 OA
ATOM    138   O  SGN B   7      33.447  13.893  34.8830  0.00  0.00     0.000 OA
ATOM    139   O  SGN B   7      35.059  15.620  35.4870  0.00  0.00     0.000 OA
ENDBRANCH 124 134
BRANCH 120 140
ATOM    140  O4  IDS B   8      38.308  13.050  31.0720  0.00  0.00     0.000 O
BRANCH 140 144
ATOM    141  C1  IDS B   8      41.633  14.309  31.6360  0.00  0.00     0.000 C
ATOM    142  C2  IDS B   8      41.214  13.751  30.2460  0.00  0.00     0.000 C
ATOM    143  C3  IDS B   8      40.512  12.384  30.3310  0.00  0.00     0.000 C
ATOM    144  C4  IDS B   8      39.487  12.336  31.4630  0.00  0.00     0.000 C
ATOM    145  C5  IDS B   8      40.079  12.953  32.7400  0.00  0.00     0.000 C
ATOM    146  O5  IDS B   8      40.521  14.290  32.5220  0.00  0.00     0.000 O
BRANCH 142 147
ATOM    147   O  IDS B   8      40.264  14.694  29.5990  0.00  0.00     0.000 O
ATOM    148   S  IDS B   8      40.567  15.308  28.1280  0.00  0.00     0.000 S
ATOM    149   O  IDS B   8      41.968  15.095  27.8440  0.00  0.00     0.000 OA
ATOM    150   O  IDS B   8      39.693  14.588  27.2210  0.00  0.00     0.000 OA
ATOM    151   O  IDS B   8      40.244  16.719  28.2300  0.00  0.00     0.000 OA
ENDBRANCH 142 147
BRANCH 145 152
ATOM    152   C  IDS B   8      39.075  13.024  33.8730  0.00  0.00     0.000 C
ATOM    153   O  IDS B   8      38.718  14.118  34.2950  0.00  0.00     0.000 OA
ATOM    154   O  IDS B   8      38.619  11.995  34.3380  0.00  0.00     0.000 OA
ENDBRANCH 145 152
ENDBRANCH 140 144
ENDBRANCH 120 140
ENDBRANCH 119 123
ENDBRANCH 103 119
ENDBRANCH 102 106
ENDBRANCH 82 102
ENDBRANCH 81 85
ENDBRANCH 65 81
ENDBRANCH 64 68
ENDBRANCH 41 64
ENDBRANCH 40 44
ENDBRANCH 24 40
ENDBRANCH 23 27
ENDBRANCH 1 23
TORSDOF 31
ENDMDL
MODEL 74
REMARK VINA RESULT:      -6.7      8.014     19.764
ROOT
ATOM      1  C1  SGN B   1      14.498  18.810  23.2200  0.00  0.00     0.000 C
ATOM      2  C2  SGN B   1      13.418  18.036  23.9940  0.00  0.00     0.000 C
ATOM      3  C3  SGN B   1      12.801  16.942  23.1160  0.00  0.00     0.000 C
ATOM      4  C4  SGN B   1      12.257  17.546  21.8260  0.00  0.00     0.000 C
ATOM      5  C5  SGN B   1      13.338  18.414  21.1860  0.00  0.00     0.000 C
ATOM      6  O5  SGN B   1      13.791  19.397  22.1360  0.00  0.00     0.000 O
ATOM      7   O  SGN B   1      11.772  16.257  23.8200  0.00  0.00     0.000 O
ATOM      9  HD  SGN B   1      11.465  17.067  23.8040  0.00  0.00     0.000 HD
ATOM      9   O  SGN B   1      11.879  16.506  20.9430  0.00  0.00     0.000 O
ATOM     11  HD  SGN B   1      11.572  17.316  20.9260  0.00  0.00     0.000 HD
ENDROOT
BRANCH 2 13
ATOM     11   N  SGN B   1      13.450  18.714  25.3040  0.00  0.00     0.000 N
ATOM     13  HD  SGN B   1      14.174  18.385  24.9600  0.00  0.00     0.000 HD
ATOM     13   S  SGN B   1      14.530  18.342  26.4370  0.00  0.00     0.000 S
ATOM     14   O  SGN B   1      15.416  17.354  25.9580  0.00  0.00     0.000 OA
ATOM     15   O  SGN B   1      15.056  19.553  26.9730  0.00  0.00     0.000 OA
ATOM     16   O  SGN B   1      13.548  17.757  27.4980  0.00  0.00     0.000 OA
ENDBRANCH 2 13
BRANCH 5 17
ATOM     17   C  SGN B   1      12.881  19.156  19.9550  0.00  0.00     0.000 C
ATOM     18   O  SGN B   1      11.519  19.606  20.1010  0.00  0.00     0.000 O
ATOM     19   S  SGN B   1      10.561  19.362  18.8440  0.00  0.00     0.000 S
ATOM     20   O  SGN B   1       9.351  20.098  19.1460  0.00  0.00     0.000 OA
ATOM     21   O  SGN B   1      11.301  19.900  17.7270  0.00  0.00     0.000 OA
ATOM     22   O  SGN B   1      10.369  17.929  18.7880  0.00  0.00     0.000 OA
ENDBRANCH 5 17
BRANCH 1 23
ATOM     23  O4  IDS B   2      15.837  18.778  22.9640  0.00  0.00     0.000 O
BRANCH 23 27
ATOM     24  C1  IDS B   2      19.898  19.625  22.8130  0.00  0.00     0.000 C
ATOM     25  C2  IDS B   2      19.078  20.467  23.8160  0.00  0.00     0.000 C
ATOM     26  C3  IDS B   2      17.681  19.881  24.0060  0.00  0.00     0.000 C
ATOM     27  C4  IDS B   2      16.916  19.700  22.7020  0.00  0.00     0.000 C
ATOM     28  C5  IDS B   2      17.879  19.253  21.5830  0.00  0.00     0.000 C
ATOM     29  O5  IDS B   2      19.060  18.685  22.1280  0.00  0.00     0.000 O
ATOM     30   O  IDS B   2      16.918  20.750  24.8350  0.00  0.00     0.000 O
ATOM     32  HD  IDS B   2      16.605  21.437  24.4120  0.00  0.00     0.000 HD
BRANCH 25 32
ATOM     32   O  IDS B   2      19.721  20.534  25.1510  0.00  0.00     0.000 O
ATOM     33   S  IDS B   2      20.142  21.971  25.8440  0.00  0.00     0.000 S
ATOM     34   O  IDS B   2      20.935  21.637  27.0170  0.00  0.00     0.000 OA
ATOM     35   O  IDS B   2      20.908  22.762  24.8920  0.00  0.00     0.000 OA
ATOM     36   O  IDS B   2      18.898  22.605  26.2130  0.00  0.00     0.000 OA
ENDBRANCH 25 32
BRANCH 28 37
ATOM     37   C  IDS B   2      17.334  18.297  20.5020  0.00  0.00     0.000 C
ATOM     38   O  IDS B   2      16.575  18.842  19.7360  0.00  0.00     0.000 OA
ATOM     39   O  IDS B   2      17.648  17.094  20.3300  0.00  0.00     0.000 OA
ENDBRANCH 28 37
BRANCH 24 40
ATOM     40  O4  SUS B   3      21.139  20.020  22.4600  0.00  0.00     0.000 O
BRANCH 40 44
ATOM     41  C1  SUS B   3      24.548  17.766  21.5440  0.00  0.00     0.000 C
ATOM     42  C2  SUS B   3      23.366  17.690  20.5560  0.00  0.00     0.000 C
ATOM     43  C3  SUS B   3      22.452  18.893  20.7730  0.00  0.00     0.000 C
ATOM     44  C4  SUS B   3      22.034  18.937  22.2350  0.00  0.00     0.000 C
ATOM     45  C5  SUS B   3      23.271  19.105  23.0930  0.00  0.00     0.000 C
ATOM     46  O5  SUS B   3      24.115  17.952  22.8960  0.00  0.00     0.000 O
BRANCH 42 49
ATOM     47   N  SUS B   3      24.217  17.328  19.4100  0.00  0.00     0.000 N
ATOM     49  HD  SUS B   3      24.399  17.961  18.8480  0.00  0.00     0.000 HD
ATOM     49   S  SUS B   3      23.645  16.079  18.5860  0.00  0.00     0.000 S
ATOM     50   O  SUS B   3      22.339  16.359  18.1360  0.00  0.00     0.000 OA
ATOM     51   O  SUS B   3      24.656  16.159  17.4130  0.00  0.00     0.000 OA
ATOM     52   O  SUS B   3      23.840  14.899  19.3310  0.00  0.00     0.000 OA
ENDBRANCH 42 49
BRANCH 43 53
ATOM     53   O  SUS B   3      21.262  18.720  19.9160  0.00  0.00     0.000 O
ATOM     54   S  SUS B   3      21.014  19.844  18.7430  0.00  0.00     0.000 S
ATOM     55   O  SUS B   3      22.030  19.640  17.7210  0.00  0.00     0.000 OA
ATOM     56   O  SUS B   3      19.661  19.582  18.2850  0.00  0.00     0.000 OA
ATOM     57   O  SUS B   3      21.163  21.154  19.3850  0.00  0.00     0.000 OA
ENDBRANCH 43 53
BRANCH 45 58
ATOM     58   C  SUS B   3      22.928  19.258  24.5580  0.00  0.00     0.000 C
ATOM     59   S  SUS B   3      22.783  17.947  26.7600  0.00  0.00     0.000 S
ATOM     60   O  SUS B   3      23.271  18.049  25.2560  0.00  0.00     0.000 O
ATOM     61   O  SUS B   3      21.373  17.617  26.6790  0.00  0.00     0.000 OA
ATOM     62   O  SUS B   3      23.585  16.848  27.2270  0.00  0.00     0.000 OA
ATOM     63   O  SUS B   3      23.080  19.207  27.3420  0.00  0.00     0.000 OA
ENDBRANCH 45 58
BRANCH 41 64
ATOM     64  O4  IDS B   4      25.544  18.625  21.1490  0.00  0.00     0.000 O
BRANCH 64 68
ATOM     65  C1  IDS B   4      28.777  20.230  21.6490  0.00  0.00     0.000 C
ATOM     66  C2  IDS B   4      28.326  19.824  20.2400  0.00  0.00     0.000 C
ATOM     67  C3  IDS B   4      27.753  18.420  20.1450  0.00  0.00     0.000 C
ATOM     68  C4  IDS B   4      26.864  18.064  21.3220  0.00  0.00     0.000 C
ATOM     69  C5  IDS B   4      27.563  18.531  22.6060  0.00  0.00     0.000 C
ATOM     70  O5  IDS B   4      27.730  19.950  22.5610  0.00  0.00     0.000 O
ATOM     71   O  IDS B   4      28.844  17.525  20.0820  0.00  0.00     0.000 O
ATOM     73  HD  IDS B   4      28.454  18.296  20.0260  0.00  0.00     0.000 HD
BRANCH 66 73
ATOM     73   O  IDS B   4      27.241  20.719  19.8140  0.00  0.00     0.000 O
ATOM     74   S  IDS B   4      27.502  21.671  18.5330  0.00  0.00     0.000 S
ATOM     75   O  IDS B   4      28.684  22.450  18.8350  0.00  0.00     0.000 OA
ATOM     76   O  IDS B   4      26.287  22.444  18.4850  0.00  0.00     0.000 OA
ATOM     77   O  IDS B   4      27.679  20.774  17.4160  0.00  0.00     0.000 OA
ENDBRANCH 66 73
BRANCH 69 78
ATOM     78   C  IDS B   4      26.903  18.053  23.8910  0.00  0.00     0.000 C
ATOM     79   O  IDS B   4      26.462  18.891  24.6770  0.00  0.00     0.000 OA
ATOM     80   O  IDS B   4      26.736  16.830  24.0560  0.00  0.00     0.000 OA
ENDBRANCH 69 78
BRANCH 65 81
ATOM     81  O4  SGN B   5      29.989  19.669  21.9150  0.00  0.00     0.000 O
BRANCH 81 85
ATOM     82  C1  SGN B   5      33.155  19.722  24.6740  0.00  0.00     0.000 C
ATOM     83  C2  SGN B   5      32.025  18.713  24.9280  0.00  0.00     0.000 C
ATOM     84  C3  SGN B   5      31.227  18.499  23.6340  0.00  0.00     0.000 C
ATOM     85  C4  SGN B   5      30.727  19.841  23.1270  0.00  0.00     0.000 C
ATOM     86  C5  SGN B   5      31.935  20.744  22.8910  0.00  0.00     0.000 C
ATOM     87  O5  SGN B   5      32.630  20.922  24.1400  0.00  0.00     0.000 O
ATOM     88   O  SGN B   5      30.152  17.618  23.8740  0.00  0.00     0.000 O
ATOM     90  HD  SGN B   5      30.898  17.406  23.4890  0.00  0.00     0.000 HD
BRANCH 83 92
ATOM     90   N  SGN B   5      32.854  17.664  25.5540  0.00  0.00     0.000 N
ATOM     92  HD  SGN B   5      33.691  17.774  25.3620  0.00  0.00     0.000 HD
ATOM     92   S  SGN B   5      32.554  17.278  27.0760  0.00  0.00     0.000 S
ATOM     93   O  SGN B   5      33.513  16.259  27.3780  0.00  0.00     0.000 OA
ATOM     94   O  SGN B   5      32.567  18.505  27.7950  0.00  0.00     0.000 OA
ATOM     95   O  SGN B   5      31.128  16.772  27.0700  0.00  0.00     0.000 OA
ENDBRANCH 83 92
BRANCH 86 96
ATOM     96   C  SGN B   5      31.587  22.122  22.3680  0.00  0.00     0.000 C
ATOM     97   O  SGN B   5      32.674  22.663  21.6130  0.00  0.00     0.000 O
ATOM     98   S  SGN B   5      32.312  23.227  20.1570  0.00  0.00     0.000 S
ATOM     99   O  SGN B   5      33.538  23.870  19.7500  0.00  0.00     0.000 OA
ATOM    100   O  SGN B   5      31.929  22.121  19.3540  0.00  0.00     0.000 OA
ATOM    101   O  SGN B   5      31.242  24.143  20.3870  0.00  0.00     0.000 OA
ENDBRANCH 86 96
BRANCH 82 102
ATOM    102  O4  IDS B   6      34.128  19.225  23.8600  0.00  0.00     0.000 O
BRANCH 102 106
ATOM    103  C1  IDS B   6      37.564  18.143  23.3270  0.00  0.00     0.000 C
ATOM    104  C2  IDS B   6      36.893  17.980  24.7000  0.00  0.00     0.000 C
ATOM    105  C3  IDS B   6      36.158  19.207  25.2050  0.00  0.00     0.000 C
ATOM    106  C4  IDS B   6      35.378  19.916  24.1120  0.00  0.00     0.000 C
ATOM    107  C5  IDS B   6      36.225  19.990  22.8380  0.00  0.00     0.000 C
ATOM    108  O5  IDS B   6      36.648  18.697  22.4020  0.00  0.00     0.000 O
ATOM    109   O  IDS B   6      37.109  20.080  25.7920  0.00  0.00     0.000 O
ATOM    111  HD  IDS B   6      37.858  19.852  25.4220  0.00  0.00     0.000 HD
BRANCH 104 111
ATOM    111   O  IDS B   6      35.872  16.925  24.6130  0.00  0.00     0.000 O
ATOM    112   S  IDS B   6      36.235  15.477  25.1930  0.00  0.00     0.000 S
ATOM    113   O  IDS B   6      37.411  15.067  24.4420  0.00  0.00     0.000 OA
ATOM    114   O  IDS B   6      36.443  15.595  26.6400  0.00  0.00     0.000 OA
ATOM    115   O  IDS B   6      35.027  14.769  24.8260  0.00  0.00     0.000 OA
ENDBRANCH 104 111
BRANCH 107 116
ATOM    116   C  IDS B   6      35.421  20.670  21.7370  0.00  0.00     0.000 C
ATOM    117   O  IDS B   6      35.447  21.874  21.7110  0.00  0.00     0.000 OA
ATOM    118   O  IDS B   6      34.775  20.021  20.9290  0.00  0.00     0.000 OA
ENDBRANCH 107 116
BRANCH 103 119
ATOM    119  O4  SGN B   7      38.738  18.760  23.6140  0.00  0.00     0.000 O
BRANCH 119 123
ATOM    120  C1  SGN B   7      42.624  18.770  22.0680  0.00  0.00     0.000 C
ATOM    121  C2  SGN B   7      41.524  19.460  21.2390  0.00  0.00     0.000 C
ATOM    122  C3  SGN B   7      40.284  19.722  22.1020  0.00  0.00     0.000 C
ATOM    123  C4  SGN B   7      39.836  18.429  22.7630  0.00  0.00     0.000 C
ATOM    124  C5  SGN B   7      41.002  17.818  23.5580  0.00  0.00     0.000 C
ATOM    125  O5  SGN B   7      42.147  17.587  22.7060  0.00  0.00     0.000 O
ATOM    126   O  SGN B   7      39.250  20.271  21.2780  0.00  0.00     0.000 O
ATOM    128  HD  SGN B   7      40.081  20.042  21.3600  0.00  0.00     0.000 HD
BRANCH 121 130
ATOM    128   N  SGN B   7      42.110  19.451  19.8960  0.00  0.00     0.000 N
ATOM    130  HD  SGN B   7      41.372  19.760  19.5640  0.00  0.00     0.000 HD
ATOM    130   S  SGN B   7      42.541  20.804  19.1370  0.00  0.00     0.000 S
ATOM    131   O  SGN B   7      43.341  21.517  20.0720  0.00  0.00     0.000 OA
ATOM    132   O  SGN B   7      43.062  20.456  17.8650  0.00  0.00     0.000 OA
ATOM    133   O  SGN B   7      41.131  21.416  18.8320  0.00  0.00     0.000 OA
ENDBRANCH 121 130
BRANCH 124 134
ATOM    134   C  SGN B   7      40.693  16.476  24.1550  0.00  0.00     0.000 C
ATOM    135   O  SGN B   7      41.895  15.688  24.1580  0.00  0.00     0.000 O
ATOM    136   S  SGN B   7      41.819  14.298  24.8850  0.00  0.00     0.000 S
ATOM    137   O  SGN B   7      43.093  13.656  24.6690  0.00  0.00     0.000 OA
ATOM    138   O  SGN B   7      40.721  13.601  24.2550  0.00  0.00     0.000 OA
ATOM    139   O  SGN B   7      41.576  14.680  26.2670  0.00  0.00     0.000 OA
ENDBRANCH 124 134
BRANCH 120 140
ATOM    140  O4  IDS B   8      43.334  19.281  23.0800  0.00  0.00     0.000 O
BRANCH 140 144
ATOM    141  C1  IDS B   8      44.027  21.117  26.0980  0.00  0.00     0.000 C
ATOM    142  C2  IDS B   8      42.996  21.645  25.0600  0.00  0.00     0.000 C
ATOM    143  C3  IDS B   8      43.533  21.631  23.6160  0.00  0.00     0.000 C
ATOM    144  C4  IDS B   8      44.279  20.338  23.2950  0.00  0.00     0.000 C
ATOM    145  C5  IDS B   8      45.226  19.972  24.4470  0.00  0.00     0.000 C
ATOM    146  O5  IDS B   8      44.529  19.852  25.6850  0.00  0.00     0.000 O
BRANCH 142 147
ATOM    147   O  IDS B   8      41.783  20.787  25.0870  0.00  0.00     0.000 O
ATOM    148   S  IDS B   8      40.456  21.240  25.9030  0.00  0.00     0.000 S
ATOM    149   O  IDS B   8      40.841  22.296  26.8120  0.00  0.00     0.000 OA
ATOM    150   O  IDS B   8      39.513  21.684  24.8930  0.00  0.00     0.000 OA
ATOM    151   O  IDS B   8      40.018  20.051  26.6090  0.00  0.00     0.000 OA
ENDBRANCH 142 147
BRANCH 145 152
ATOM    152   C  IDS B   8      45.923  18.644  24.2300  0.00  0.00     0.000 C
ATOM    153   O  IDS B   8      45.932  17.812  25.1310  0.00  0.00     0.000 OA
ATOM    154   O  IDS B   8      46.449  18.408  23.1570  0.00  0.00     0.000 OA
ENDBRANCH 145 152
ENDBRANCH 140 144
ENDBRANCH 120 140
ENDBRANCH 119 123
ENDBRANCH 103 119
ENDBRANCH 102 106
ENDBRANCH 82 102
ENDBRANCH 81 85
ENDBRANCH 65 81
ENDBRANCH 64 68
ENDBRANCH 41 64
ENDBRANCH 40 44
ENDBRANCH 24 40
ENDBRANCH 23 27
ENDBRANCH 1 23
TORSDOF 31
ENDMDL
MODEL 75
REMARK VINA RESULT:      -6.7      4.193      7.682
ROOT
ATOM      1  C1  SGN B   1      25.729  16.958  14.4200  0.00  0.00     0.000 C
ATOM      2  C2  SGN B   1      24.733  17.335  13.3110  0.00  0.00     0.000 C
ATOM      3  C3  SGN B   1      23.480  16.455  13.3850  0.00  0.00     0.000 C
ATOM      4  C4  SGN B   1      23.868  14.981  13.3260  0.00  0.00     0.000 C
ATOM      5  C5  SGN B   1      24.961  14.712  14.3580  0.00  0.00     0.000 C
ATOM      6  O5  SGN B   1      26.067  15.608  14.1340  0.00  0.00     0.000 O
ATOM      7   O  SGN B   1      22.581  16.777  12.3300  0.00  0.00     0.000 O
ATOM      9  HD  SGN B   1      23.281  16.519  11.8910  0.00  0.00     0.000 HD
ATOM      9   O  SGN B   1      22.730  14.184  13.6000  0.00  0.00     0.000 O
ATOM     11  HD  SGN B   1      23.431  13.926  13.1610  0.00  0.00     0.000 HD
ENDROOT
BRANCH 2 13
ATOM     11   N  SGN B   1      25.583  18.402  12.7500  0.00  0.00     0.000 N
ATOM     13  HD  SGN B   1      25.244  18.481  13.5430  0.00  0.00     0.000 HD
ATOM     13   S  SGN B   1      25.418  19.945  13.1750  0.00  0.00     0.000 S
ATOM     14   O  SGN B   1      24.414  20.073  14.1570  0.00  0.00     0.000 OA
ATOM     15   O  SGN B   1      26.713  20.485  13.4220  0.00  0.00     0.000 OA
ATOM     16   O  SGN B   1      24.941  20.505  11.7990  0.00  0.00     0.000 OA
ENDBRANCH 2 13
BRANCH 5 17
ATOM     17   C  SGN B   1      25.507  13.306  14.3210  0.00  0.00     0.000 C
ATOM     18   O  SGN B   1      26.930  13.312  14.0920  0.00  0.00     0.000 O
ATOM     19   S  SGN B   1      27.471  12.267  13.0100  0.00  0.00     0.000 S
ATOM     20   O  SGN B   1      28.912  12.306  13.1380  0.00  0.00     0.000 OA
ATOM     21   O  SGN B   1      26.888  11.008  13.4140  0.00  0.00     0.000 OA
ATOM     22   O  SGN B   1      26.988  12.757  11.7380  0.00  0.00     0.000 OA
ENDBRANCH 5 17
BRANCH 1 23
ATOM     23  O4  IDS B   2      26.037  17.272  15.7110  0.00  0.00     0.000 O
BRANCH 23 27
ATOM     24  C1  IDS B   2      25.606  18.753  19.5640  0.00  0.00     0.000 C
ATOM     25  C2  IDS B   2      24.453  19.082  18.5900  0.00  0.00     0.000 C
ATOM     26  C3  IDS B   2      24.564  18.254  17.3140  0.00  0.00     0.000 C
ATOM     27  C4  IDS B   2      25.911  18.387  16.6170  0.00  0.00     0.000 C
ATOM     28  C5  IDS B   2      27.038  18.487  17.6650  0.00  0.00     0.000 C
ATOM     29  O5  IDS B   2      26.615  17.967  18.9170  0.00  0.00     0.000 O
ATOM     30   O  IDS B   2      23.562  18.673  16.3950  0.00  0.00     0.000 O
ATOM     32  HD  IDS B   2      23.767  19.402  15.9750  0.00  0.00     0.000 HD
BRANCH 25 32
ATOM     32   O  IDS B   2      23.121  18.813  19.1860  0.00  0.00     0.000 O
ATOM     33   S  IDS B   2      21.943  19.966  19.2430  0.00  0.00     0.000 S
ATOM     34   O  IDS B   2      20.885  19.424  20.0810  0.00  0.00     0.000 OA
ATOM     35   O  IDS B   2      22.492  21.192  19.8060  0.00  0.00     0.000 OA
ATOM     36   O  IDS B   2      21.498  20.138  17.8800  0.00  0.00     0.000 OA
ENDBRANCH 25 32
BRANCH 28 37
ATOM     37   C  IDS B   2      28.404  17.860  17.3170  0.00  0.00     0.000 C
ATOM     38   O  IDS B   2      29.154  18.642  16.7820  0.00  0.00     0.000 OA
ATOM     39   O  IDS B   2      28.792  16.697  17.5870  0.00  0.00     0.000 OA
ENDBRANCH 28 37
BRANCH 24 40
ATOM     40  O4  SUS B   3      25.722  19.433  20.7240  0.00  0.00     0.000 O
BRANCH 40 44
ATOM     41  C1  SUS B   3      26.718  17.977  24.5230  0.00  0.00     0.000 C
ATOM     42  C2  SUS B   3      27.853  18.605  23.6890  0.00  0.00     0.000 C
ATOM     43  C3  SUS B   3      27.247  19.485  22.5980  0.00  0.00     0.000 C
ATOM     44  C4  SUS B   3      26.268  18.655  21.7830  0.00  0.00     0.000 C
ATOM     45  C5  SUS B   3      25.157  18.173  22.6940  0.00  0.00     0.000 C
ATOM     46  O5  SUS B   3      25.739  17.326  23.7060  0.00  0.00     0.000 O
BRANCH 42 49
ATOM     47   N  SUS B   3      28.751  17.841  24.5720  0.00  0.00     0.000 N
ATOM     49  HD  SUS B   3      28.453  17.660  25.3640  0.00  0.00     0.000 HD
ATOM     49   S  SUS B   3      30.192  18.523  24.7260  0.00  0.00     0.000 S
ATOM     50   O  SUS B   3      30.051  19.838  25.2170  0.00  0.00     0.000 OA
ATOM     51   O  SUS B   3      30.720  17.580  25.8370  0.00  0.00     0.000 OA
ATOM     52   O  SUS B   3      30.923  18.347  23.5340  0.00  0.00     0.000 OA
ENDBRANCH 42 49
BRANCH 43 53
ATOM     53   O  SUS B   3      28.345  19.958  21.7330  0.00  0.00     0.000 O
ATOM     54   S  SUS B   3      28.606  21.580  21.6720  0.00  0.00     0.000 S
ATOM     55   O  SUS B   3      29.172  21.979  22.9530  0.00  0.00     0.000 OA
ATOM     56   O  SUS B   3      29.515  21.748  20.5520  0.00  0.00     0.000 OA
ATOM     57   O  SUS B   3      27.297  22.203  21.4520  0.00  0.00     0.000 OA
ENDBRANCH 43 53
BRANCH 45 58
ATOM     58   C  SUS B   3      24.087  17.421  21.9340  0.00  0.00     0.000 C
ATOM     59   S  SUS B   3      23.215  15.055  21.4570  0.00  0.00     0.000 S
ATOM     60   O  SUS B   3      24.121  16.034  22.3110  0.00  0.00     0.000 O
ATOM     61   O  SUS B   3      23.948  14.839  20.2240  0.00  0.00     0.000 OA
ATOM     62   O  SUS B   3      23.203  13.894  22.3060  0.00  0.00     0.000 OA
ATOM     63   O  SUS B   3      21.968  15.717  21.3150  0.00  0.00     0.000 OA
ENDBRANCH 45 58
BRANCH 41 64
ATOM     64  O4  IDS B   4      26.190  18.824  25.4660  0.00  0.00     0.000 O
BRANCH 64 68
ATOM     65  C1  IDS B   4      25.012  19.469  28.8530  0.00  0.00     0.000 C
ATOM     66  C2  IDS B   4      26.039  18.361  28.5900  0.00  0.00     0.000 C
ATOM     67  C3  IDS B   4      25.699  17.455  27.4180  0.00  0.00     0.000 C
ATOM     68  C4  IDS B   4      25.130  18.212  26.2340  0.00  0.00     0.000 C
ATOM     69  C5  IDS B   4      24.098  19.219  26.7610  0.00  0.00     0.000 C
ATOM     70  O5  IDS B   4      24.748  20.144  27.6360  0.00  0.00     0.000 O
ATOM     71   O  IDS B   4      24.756  16.510  27.8790  0.00  0.00     0.000 O
ATOM     73  HD  IDS B   4      25.372  17.112  27.9630  0.00  0.00     0.000 HD
BRANCH 66 73
ATOM     73   O  IDS B   4      27.326  18.980  28.2460  0.00  0.00     0.000 O
ATOM     74   S  IDS B   4      28.641  18.493  29.0520  0.00  0.00     0.000 S
ATOM     75   O  IDS B   4      28.362  18.702  30.4570  0.00  0.00     0.000 OA
ATOM     76   O  IDS B   4      29.656  19.367  28.5190  0.00  0.00     0.000 OA
ATOM     77   O  IDS B   4      28.814  17.103  28.7050  0.00  0.00     0.000 OA
ENDBRANCH 66 73
BRANCH 69 78
ATOM     78   C  IDS B   4      23.277  19.904  25.6780  0.00  0.00     0.000 C
ATOM     79   O  IDS B   4      23.861  20.584  24.8350  0.00  0.00     0.000 OA
ATOM     80   O  IDS B   4      22.056  19.669  25.6170  0.00  0.00     0.000 OA
ENDBRANCH 69 78
BRANCH 65 81
ATOM     81  O4  SGN B   5      23.939  18.947  29.5100  0.00  0.00     0.000 O
BRANCH 81 85
ATOM     82  C1  SGN B   5      20.926  19.817  32.3030  0.00  0.00     0.000 C
ATOM     83  C2  SGN B   5      20.907  20.609  30.9870  0.00  0.00     0.000 C
ATOM     84  C3  SGN B   5      21.743  19.871  29.9320  0.00  0.00     0.000 C
ATOM     85  C4  SGN B   5      23.143  19.643  30.4720  0.00  0.00     0.000 C
ATOM     86  C5  SGN B   5      23.035  18.831  31.7600  0.00  0.00     0.000 C
ATOM     87  O5  SGN B   5      22.259  19.580  32.7150  0.00  0.00     0.000 O
ATOM     88   O  SGN B   5      21.777  20.621  28.7370  0.00  0.00     0.000 O
ATOM     90  HD  SGN B   5      21.280  19.926  28.8800  0.00  0.00     0.000 HD
BRANCH 83 92
ATOM     90   N  SGN B   5      20.036  21.533  31.7390  0.00  0.00     0.000 N
ATOM     92  HD  SGN B   5      20.502  22.050  32.2530  0.00  0.00     0.000 HD
ATOM     92   S  SGN B   5      18.849  22.256  30.9490  0.00  0.00     0.000 S
ATOM     93   O  SGN B   5      18.211  23.072  31.9380  0.00  0.00     0.000 OA
ATOM     94   O  SGN B   5      19.454  22.858  29.8100  0.00  0.00     0.000 OA
ATOM     95   O  SGN B   5      17.974  21.126  30.4520  0.00  0.00     0.000 OA
ENDBRANCH 83 92
BRANCH 86 96
ATOM     96   C  SGN B   5      24.367  18.515  32.4090  0.00  0.00     0.000 C
ATOM     97   O  SGN B   5      24.409  17.150  32.8310  0.00  0.00     0.000 O
ATOM     98   S  SGN B   5      25.688  16.305  32.3620  0.00  0.00     0.000 S
ATOM     99   O  SGN B   5      25.542  15.072  33.0970  0.00  0.00     0.000 OA
ATOM    100   O  SGN B   5      25.613  16.166  30.9520  0.00  0.00     0.000 OA
ATOM    101   O  SGN B   5      26.804  17.087  32.7850  0.00  0.00     0.000 OA
ENDBRANCH 86 96
BRANCH 82 102
ATOM    102  O4  IDS B   6      20.240  18.642  32.2180  0.00  0.00     0.000 O
BRANCH 102 106
ATOM    103  C1  IDS B   6      17.592  16.256  32.9630  0.00  0.00     0.000 C
ATOM    104  C2  IDS B   6      17.257  17.692  32.5300  0.00  0.00     0.000 C
ATOM    105  C3  IDS B   6      18.036  18.778  33.2460  0.00  0.00     0.000 C
ATOM    106  C4  IDS B   6      19.498  18.418  33.4440  0.00  0.00     0.000 C
ATOM    107  C5  IDS B   6      19.614  16.958  33.8920  0.00  0.00     0.000 C
ATOM    108  O5  IDS B   6      18.994  16.065  32.9650  0.00  0.00     0.000 O
ATOM    109   O  IDS B   6      17.405  19.026  34.4910  0.00  0.00     0.000 O
ATOM    111  HD  IDS B   6      16.970  18.295  34.6530  0.00  0.00     0.000 HD
BRANCH 104 111
ATOM    111   O  IDS B   6      17.588  17.852  31.1050  0.00  0.00     0.000 O
ATOM    112   S  IDS B   6      16.462  17.491  30.0260  0.00  0.00     0.000 S
ATOM    113   O  IDS B   6      16.138  16.097  30.2870  0.00  0.00     0.000 OA
ATOM    114   O  IDS B   6      15.341  18.423  30.1950  0.00  0.00     0.000 OA
ATOM    115   O  IDS B   6      17.225  17.700  28.8140  0.00  0.00     0.000 OA
ENDBRANCH 104 111
BRANCH 107 116
ATOM    116   C  IDS B   6      21.085  16.596  34.0530  0.00  0.00     0.000 C
ATOM    117   O  IDS B   6      21.528  15.774  33.2910  0.00  0.00     0.000 OA
ATOM    118   O  IDS B   6      21.775  17.110  34.9190  0.00  0.00     0.000 OA
ENDBRANCH 107 116
BRANCH 103 119
ATOM    119  O4  SGN B   7      16.853  16.080  34.0890  0.00  0.00     0.000 O
BRANCH 119 123
ATOM    120  C1  SGN B   7      14.894  12.885  35.9430  0.00  0.00     0.000 C
ATOM    121  C2  SGN B   7      16.395  13.066  36.2330  0.00  0.00     0.000 C
ATOM    122  C3  SGN B   7      16.857  14.470  35.8230  0.00  0.00     0.000 C
ATOM    123  C4  SGN B   7      16.474  14.734  34.3760  0.00  0.00     0.000 C
ATOM    124  C5  SGN B   7      14.963  14.521  34.1890  0.00  0.00     0.000 C
ATOM    125  O5  SGN B   7      14.573  13.187  34.5860  0.00  0.00     0.000 O
ATOM    126   O  SGN B   7      18.273  14.569  36.0140  0.00  0.00     0.000 O
ATOM    128  HD  SGN B   7      17.544  14.120  36.1400  0.00  0.00     0.000 HD
BRANCH 121 130
ATOM    128   N  SGN B   7      16.100  12.201  37.3780  0.00  0.00     0.000 N
ATOM    130  HD  SGN B   7      16.260  11.498  36.8980  0.00  0.00     0.000 HD
ATOM    130   S  SGN B   7      17.252  11.414  38.1820  0.00  0.00     0.000 S
ATOM    131   O  SGN B   7      18.233  12.399  38.4860  0.00  0.00     0.000 OA
ATOM    132   O  SGN B   7      16.641  10.665  39.2200  0.00  0.00     0.000 OA
ATOM    133   O  SGN B   7      17.661  10.346  37.1110  0.00  0.00     0.000 OA
ENDBRANCH 121 130
BRANCH 124 134
ATOM    134   C  SGN B   7      14.504  14.646  32.7660  0.00  0.00     0.000 C
ATOM    135   O  SGN B   7      13.068  14.730  32.7540  0.00  0.00     0.000 O
ATOM    136   S  SGN B   7      12.396  15.021  31.3640  0.00  0.00     0.000 S
ATOM    137   O  SGN B   7      10.971  14.955  31.5810  0.00  0.00     0.000 OA
ATOM    138   O  SGN B   7      12.882  13.982  30.4840  0.00  0.00     0.000 OA
ATOM    139   O  SGN B   7      12.888  16.353  31.0510  0.00  0.00     0.000 OA
ENDBRANCH 124 134
BRANCH 120 140
ATOM    140  O4  IDS B   8      13.861  13.489  36.5410  0.00  0.00     0.000 O
BRANCH 140 144
ATOM    141  C1  IDS B   8      11.051  14.524  38.5410  0.00  0.00     0.000 C
ATOM    142  C2  IDS B   8      10.972  14.528  36.9870  0.00  0.00     0.000 C
ATOM    143  C3  IDS B   8      12.180  15.215  36.3230  0.00  0.00     0.000 C
ATOM    144  C4  IDS B   8      13.501  14.807  36.9750  0.00  0.00     0.000 C
ATOM    145  C5  IDS B   8      13.369  14.842  38.5050  0.00  0.00     0.000 C
ATOM    146  O5  IDS B   8      12.308  14.007  38.9620  0.00  0.00     0.000 O
BRANCH 142 147
ATOM    147   O  IDS B   8      10.934  13.128  36.4890  0.00  0.00     0.000 O
ATOM    148   S  IDS B   8      10.230  12.764  35.0740  0.00  0.00     0.000 S
ATOM    149   O  IDS B   8       9.398  13.884  34.6970  0.00  0.00     0.000 OA
ATOM    150   O  IDS B   8      11.322  12.537  34.1450  0.00  0.00     0.000 OA
ATOM    151   O  IDS B   8       9.447  11.571  35.3330  0.00  0.00     0.000 OA
ENDBRANCH 142 147
BRANCH 145 152
ATOM    152   C  IDS B   8      14.618  14.351  39.2090  0.00  0.00     0.000 C
ATOM    153   O  IDS B   8      14.573  13.321  39.8720  0.00  0.00     0.000 OA
ATOM    154   O  IDS B   8      15.659  14.973  39.0920  0.00  0.00     0.000 OA
ENDBRANCH 145 152
ENDBRANCH 140 144
ENDBRANCH 120 140
ENDBRANCH 119 123
ENDBRANCH 103 119
ENDBRANCH 102 106
ENDBRANCH 82 102
ENDBRANCH 81 85
ENDBRANCH 65 81
ENDBRANCH 64 68
ENDBRANCH 41 64
ENDBRANCH 40 44
ENDBRANCH 24 40
ENDBRANCH 23 27
ENDBRANCH 1 23
TORSDOF 31
ENDMDL
MODEL 76
REMARK VINA RESULT:      -6.7     13.279     24.450
ROOT
ATOM      1  C1  SGN B   1      18.702  10.626  37.9540  0.00  0.00     0.000 C
ATOM      2  C2  SGN B   1      17.541  10.184  37.0490  0.00  0.00     0.000 C
ATOM      3  C3  SGN B   1      16.330   9.761  37.8880  0.00  0.00     0.000 C
ATOM      4  C4  SGN B   1      16.729   8.671  38.8770  0.00  0.00     0.000 C
ATOM      5  C5  SGN B   1      17.972   9.122  39.6410  0.00  0.00     0.000 C
ATOM      6  O5  SGN B   1      19.015   9.461  38.7060  0.00  0.00     0.000 O
ATOM      7   O  SGN B   1      15.273   9.310  37.0480  0.00  0.00     0.000 O
ATOM      9  HD  SGN B   1      15.902   8.746  36.8580  0.00  0.00     0.000 HD
ATOM      9   O  SGN B   1      15.661   8.438  39.7770  0.00  0.00     0.000 O
ATOM     11  HD  SGN B   1      16.290   7.874  39.5860  0.00  0.00     0.000 HD
ENDROOT
BRANCH 2 13
ATOM     11   N  SGN B   1      18.215  10.397  35.7540  0.00  0.00     0.000 N
ATOM     13  HD  SGN B   1      18.086  11.059  36.2980  0.00  0.00     0.000 HD
ATOM     13   S  SGN B   1      18.152  11.802  34.9740  0.00  0.00     0.000 S
ATOM     14   O  SGN B   1      17.428  12.746  35.7320  0.00  0.00     0.000 OA
ATOM     15   O  SGN B   1      19.464  12.126  34.5220  0.00  0.00     0.000 OA
ATOM     16   O  SGN B   1      17.340  11.330  33.7290  0.00  0.00     0.000 OA
ENDBRANCH 2 13
BRANCH 5 17
ATOM     17   C  SGN B   1      18.530   8.078  40.5770  0.00  0.00     0.000 C
ATOM     18   O  SGN B   1      18.678   6.811  39.9050  0.00  0.00     0.000 O
ATOM     19   S  SGN B   1      18.164   5.527  40.7080  0.00  0.00     0.000 S
ATOM     20   O  SGN B   1      18.632   4.392  39.9400  0.00  0.00     0.000 OA
ATOM     21   O  SGN B   1      18.791   5.647  42.0030  0.00  0.00     0.000 OA
ATOM     22   O  SGN B   1      16.723   5.652  40.7380  0.00  0.00     0.000 OA
ENDBRANCH 5 17
BRANCH 1 23
ATOM     23  O4  IDS B   2      19.200  11.742  38.5600  0.00  0.00     0.000 O
BRANCH 23 27
ATOM     24  C1  IDS B   2      23.185  12.571  37.7450  0.00  0.00     0.000 C
ATOM     25  C2  IDS B   2      22.932  11.599  38.9190  0.00  0.00     0.000 C
ATOM     26  C3  IDS B   2      21.478  11.135  38.9400  0.00  0.00     0.000 C
ATOM     27  C4  IDS B   2      20.475  12.281  38.9650  0.00  0.00     0.000 C
ATOM     28  C5  IDS B   2      20.983  13.444  38.0890  0.00  0.00     0.000 C
ATOM     29  O5  IDS B   2      21.949  12.990  37.1520  0.00  0.00     0.000 O
ATOM     30   O  IDS B   2      21.256  10.345  40.1020  0.00  0.00     0.000 O
ATOM     32  HD  IDS B   2      21.147  10.816  40.8210  0.00  0.00     0.000 HD
BRANCH 25 32
ATOM     32   O  IDS B   2      23.787  10.389  38.8400  0.00  0.00     0.000 O
ATOM     33   S  IDS B   2      24.874  10.010  40.0230  0.00  0.00     0.000 S
ATOM     34   O  IDS B   2      25.671   8.910  39.5030  0.00  0.00     0.000 OA
ATOM     35   O  IDS B   2      25.699  11.175  40.3130  0.00  0.00     0.000 OA
ATOM     36   O  IDS B   2      24.084   9.598  41.1600  0.00  0.00     0.000 OA
ENDBRANCH 25 32
BRANCH 28 37
ATOM     37   C  IDS B   2      19.935  14.289  37.3350  0.00  0.00     0.000 C
ATOM     38   O  IDS B   2      18.994  14.594  38.0280  0.00  0.00     0.000 OA
ATOM     39   O  IDS B   2      20.012  14.710  36.1550  0.00  0.00     0.000 OA
ENDBRANCH 28 37
BRANCH 24 40
ATOM     40  O4  SUS B   3      24.397  13.145  37.5960  0.00  0.00     0.000 O
BRANCH 40 44
ATOM     41  C1  SUS B   3      26.509  14.164  34.1260  0.00  0.00     0.000 C
ATOM     42  C2  SUS B   3      25.218  14.953  34.4230  0.00  0.00     0.000 C
ATOM     43  C3  SUS B   3      24.865  14.802  35.9000  0.00  0.00     0.000 C
ATOM     44  C4  SUS B   3      24.775  13.321  36.2360  0.00  0.00     0.000 C
ATOM     45  C5  SUS B   3      26.126  12.680  35.9900  0.00  0.00     0.000 C
ATOM     46  O5  SUS B   3      26.437  12.811  34.5880  0.00  0.00     0.000 O
BRANCH 42 49
ATOM     47   N  SUS B   3      24.082  15.700  33.8580  0.00  0.00     0.000 N
ATOM     49  HD  SUS B   3      23.403  15.231  33.5950  0.00  0.00     0.000 HD
ATOM     49   S  SUS B   3      24.514  16.668  32.6560  0.00  0.00     0.000 S
ATOM     50   O  SUS B   3      25.141  15.919  31.6390  0.00  0.00     0.000 OA
ATOM     51   O  SUS B   3      23.081  17.076  32.2290  0.00  0.00     0.000 OA
ATOM     52   O  SUS B   3      25.213  17.775  33.1770  0.00  0.00     0.000 OA
ENDBRANCH 42 49
BRANCH 43 53
ATOM     53   O  SUS B   3      23.556  15.447  36.1230  0.00  0.00     0.000 O
ATOM     54   S  SUS B   3      23.531  16.779  37.0860  0.00  0.00     0.000 S
ATOM     55   O  SUS B   3      24.167  17.862  36.3480  0.00  0.00     0.000 OA
ATOM     56   O  SUS B   3      22.120  16.998  37.3470  0.00  0.00     0.000 OA
ATOM     57   O  SUS B   3      24.295  16.436  38.2890  0.00  0.00     0.000 OA
ENDBRANCH 43 53
BRANCH 45 58
ATOM     58   C  SUS B   3      26.144  11.223  36.3970  0.00  0.00     0.000 C
ATOM     59   S  SUS B   3      25.432   8.885  35.6140  0.00  0.00     0.000 S
ATOM     60   O  SUS B   3      25.685  10.416  35.2990  0.00  0.00     0.000 O
ATOM     61   O  SUS B   3      24.158   8.845  36.3050  0.00  0.00     0.000 OA
ATOM     62   O  SUS B   3      25.360   8.346  34.2830  0.00  0.00     0.000 OA
ATOM     63   O  SUS B   3      26.552   8.465  36.3800  0.00  0.00     0.000 OA
ENDBRANCH 45 58
BRANCH 41 64
ATOM     64  O4  IDS B   4      27.657  14.823  34.4940  0.00  0.00     0.000 O
BRANCH 64 68
ATOM     65  C1  IDS B   4      31.022  16.164  34.1000  0.00  0.00     0.000 C
ATOM     66  C2  IDS B   4      30.001  16.294  32.9620  0.00  0.00     0.000 C
ATOM     67  C3  IDS B   4      29.240  15.015  32.6530  0.00  0.00     0.000 C
ATOM     68  C4  IDS B   4      28.843  14.249  33.9010  0.00  0.00     0.000 C
ATOM     69  C5  IDS B   4      30.049  14.223  34.8490  0.00  0.00     0.000 C
ATOM     70  O5  IDS B   4      30.389  15.563  35.2150  0.00  0.00     0.000 O
ATOM     71   O  IDS B   4      30.077  14.214  31.8460  0.00  0.00     0.000 O
ATOM     73  HD  IDS B   4      29.812  14.949  32.2180  0.00  0.00     0.000 HD
BRANCH 66 73
ATOM     73   O  IDS B   4      28.978  17.273  33.3550  0.00  0.00     0.000 O
ATOM     74   S  IDS B   4      28.875  18.644  32.5030  0.00  0.00     0.000 S
ATOM     75   O  IDS B   4      30.184  19.260  32.5580  0.00  0.00     0.000 OA
ATOM     76   O  IDS B   4      27.857  19.365  33.2240  0.00  0.00     0.000 OA
ATOM     77   O  IDS B   4      28.488  18.243  31.1710  0.00  0.00     0.000 OA
ENDBRANCH 66 73
BRANCH 69 78
ATOM     78   C  IDS B   4      29.885  13.304  36.0520  0.00  0.00     0.000 C
ATOM     79   O  IDS B   4      29.530  12.141  35.8630  0.00  0.00     0.000 OA
ATOM     80   O  IDS B   4      30.216  13.727  37.1750  0.00  0.00     0.000 OA
ENDBRANCH 69 78
BRANCH 65 81
ATOM     81  O4  SGN B   5      32.147  15.555  33.6310  0.00  0.00     0.000 O
BRANCH 81 85
ATOM     82  C1  SGN B   5      36.312  15.307  34.1100  0.00  0.00     0.000 C
ATOM     83  C2  SGN B   5      35.446  14.908  35.3140  0.00  0.00     0.000 C
ATOM     84  C3  SGN B   5      34.016  14.609  34.8420  0.00  0.00     0.000 C
ATOM     85  C4  SGN B   5      33.475  15.813  34.0910  0.00  0.00     0.000 C
ATOM     86  C5  SGN B   5      34.401  16.096  32.9100  0.00  0.00     0.000 C
ATOM     87  O5  SGN B   5      35.718  16.387  33.4150  0.00  0.00     0.000 O
ATOM     88   O  SGN B   5      33.201  14.297  35.9510  0.00  0.00     0.000 O
ATOM     90  HD  SGN B   5      33.540  13.722  35.3990  0.00  0.00     0.000 HD
BRANCH 83 92
ATOM     90   N  SGN B   5      36.811  14.649  35.8120  0.00  0.00     0.000 N
ATOM     92  HD  SGN B   5      37.350  15.289  35.5880  0.00  0.00     0.000 HD
ATOM     92   S  SGN B   5      36.977  14.119  37.3100  0.00  0.00     0.000 S
ATOM     93   O  SGN B   5      38.391  13.977  37.4820  0.00  0.00     0.000 OA
ATOM     94   O  SGN B   5      36.247  15.029  38.1250  0.00  0.00     0.000 OA
ATOM     95   O  SGN B   5      36.238  12.798  37.3340  0.00  0.00     0.000 OA
ENDBRANCH 83 92
BRANCH 86 96
ATOM     96   C  SGN B   5      33.975  17.272  32.0560  0.00  0.00     0.000 C
ATOM     97   O  SGN B   5      33.969  16.912  30.6720  0.00  0.00     0.000 O
ATOM     98   S  SGN B   5      32.629  17.253  29.8600  0.00  0.00     0.000 S
ATOM     99   O  SGN B   5      33.003  16.969  28.4950  0.00  0.00     0.000 OA
ATOM    100   O  SGN B   5      31.596  16.428  30.3750  0.00  0.00     0.000 OA
ATOM    101   O  SGN B   5      32.407  18.641  30.1080  0.00  0.00     0.000 OA
ENDBRANCH 86 96
BRANCH 82 102
ATOM    102  O4  IDS B   6      36.541  14.265  33.2610  0.00  0.00     0.000 O
BRANCH 102 106
ATOM    103  C1  IDS B   6      39.012  12.202  31.5600  0.00  0.00     0.000 C
ATOM    104  C2  IDS B   6      39.368  12.946  32.8560  0.00  0.00     0.000 C
ATOM    105  C3  IDS B   6      38.946  14.401  32.8990  0.00  0.00     0.000 C
ATOM    106  C4  IDS B   6      37.568  14.630  32.3030  0.00  0.00     0.000 C
ATOM    107  C5  IDS B   6      37.421  13.819  31.0130  0.00  0.00     0.000 C
ATOM    108  O5  IDS B   6      37.655  12.426  31.2290  0.00  0.00     0.000 O
ATOM    109   O  IDS B   6      39.924  15.165  32.2130  0.00  0.00     0.000 O
ATOM    111  HD  IDS B   6      40.304  14.592  31.6860  0.00  0.00     0.000 HD
BRANCH 104 111
ATOM    111   O  IDS B   6      38.671  12.306  33.9830  0.00  0.00     0.000 O
ATOM    112   S  IDS B   6      39.549  11.499  35.0510  0.00  0.00     0.000 S
ATOM    113   O  IDS B   6      40.230  10.478  34.2690  0.00  0.00     0.000 OA
ATOM    114   O  IDS B   6      40.441  12.446  35.7300  0.00  0.00     0.000 OA
ATOM    115   O  IDS B   6      38.486  10.986  35.8880  0.00  0.00     0.000 OA
ENDBRANCH 104 111
BRANCH 107 116
ATOM    116   C  IDS B   6      36.024  14.026  30.4430  0.00  0.00     0.000 C
ATOM    117   O  IDS B   6      35.126  13.424  30.9760  0.00  0.00     0.000 OA
ATOM    118   O  IDS B   6      35.830  14.760  29.4870  0.00  0.00     0.000 OA
ENDBRANCH 107 116
BRANCH 103 119
ATOM    119  O4  SGN B   7      40.013  12.544  30.7080  0.00  0.00     0.000 O
BRANCH 119 123
ATOM    120  C1  SGN B   7      42.107  10.703  27.5920  0.00  0.00     0.000 C
ATOM    121  C2  SGN B   7      40.699  11.246  27.2820  0.00  0.00     0.000 C
ATOM    122  C3  SGN B   7      40.247  12.222  28.3750  0.00  0.00     0.000 C
ATOM    123  C4  SGN B   7      40.364  11.558  29.7370  0.00  0.00     0.000 C
ATOM    124  C5  SGN B   7      41.799  11.046  29.9470  0.00  0.00     0.000 C
ATOM    125  O5  SGN B   7      42.182  10.130  28.8960  0.00  0.00     0.000 O
ATOM    126   O  SGN B   7      38.900  12.630  28.1080  0.00  0.00     0.000 O
ATOM    128  HD  SGN B   7      39.614  12.224  27.8330  0.00  0.00     0.000 HD
BRANCH 121 130
ATOM    128   N  SGN B   7      40.684  10.501  26.0210  0.00  0.00     0.000 N
ATOM    130  HD  SGN B   7      39.823  10.421  26.0700  0.00  0.00     0.000 HD
ATOM    130   S  SGN B   7      40.136  11.143  24.6490  0.00  0.00     0.000 S
ATOM    131   O  SGN B   7      40.804  12.394  24.5310  0.00  0.00     0.000 OA
ATOM    132   O  SGN B   7      40.249  10.170  23.6240  0.00  0.00     0.000 OA
ATOM    133   O  SGN B   7      38.603  11.210  24.9630  0.00  0.00     0.000 OA
ENDBRANCH 121 130
BRANCH 124 134
ATOM    134   C  SGN B   7      41.987  10.271  31.2180  0.00  0.00     0.000 C
ATOM    135   O  SGN B   7      42.578   9.000  30.8960  0.00  0.00     0.000 O
ATOM    136   S  SGN B   7      42.999   8.096  32.1100  0.00  0.00     0.000 S
ATOM    137   O  SGN B   7      43.462   6.851  31.5470  0.00  0.00     0.000 OA
ATOM    138   O  SGN B   7      41.800   7.946  32.9030  0.00  0.00     0.000 OA
ATOM    139   O  SGN B   7      44.044   8.887  32.7410  0.00  0.00     0.000 OA
ENDBRANCH 124 134
BRANCH 120 140
ATOM    140  O4  IDS B   8      43.266  11.371  27.5900  0.00  0.00     0.000 O
BRANCH 140 144
ATOM    141  C1  IDS B   8      45.539  14.100  28.1780  0.00  0.00     0.000 C
ATOM    142  C2  IDS B   8      44.065  14.363  27.7560  0.00  0.00     0.000 C
ATOM    143  C3  IDS B   8      43.625  13.522  26.5440  0.00  0.00     0.000 C
ATOM    144  C4  IDS B   8      44.093  12.072  26.6530  0.00  0.00     0.000 C
ATOM    145  C5  IDS B   8      45.561  12.021  27.1040  0.00  0.00     0.000 C
ATOM    146  O5  IDS B   8      45.756  12.704  28.3400  0.00  0.00     0.000 O
BRANCH 142 147
ATOM    147   O  IDS B   8      43.159  14.020  28.8830  0.00  0.00     0.000 O
ATOM    148   S  IDS B   8      42.589  15.168  29.8770  0.00  0.00     0.000 S
ATOM    149   O  IDS B   8      43.403  16.349  29.6950  0.00  0.00     0.000 OA
ATOM    150   O  IDS B   8      41.208  15.372  29.4820  0.00  0.00     0.000 OA
ATOM    151   O  IDS B   8      42.724  14.618  31.2130  0.00  0.00     0.000 OA
ENDBRANCH 142 147
BRANCH 145 152
ATOM    152   C  IDS B   8      46.055  10.606  27.3260  0.00  0.00     0.000 C
ATOM    153   O  IDS B   8      46.494  10.285  28.4240  0.00  0.00     0.000 OA
ATOM    154   O  IDS B   8      45.991   9.797  26.4170  0.00  0.00     0.000 OA
ENDBRANCH 145 152
ENDBRANCH 140 144
ENDBRANCH 120 140
ENDBRANCH 119 123
ENDBRANCH 103 119
ENDBRANCH 102 106
ENDBRANCH 82 102
ENDBRANCH 81 85
ENDBRANCH 65 81
ENDBRANCH 64 68
ENDBRANCH 41 64
ENDBRANCH 40 44
ENDBRANCH 24 40
ENDBRANCH 23 27
ENDBRANCH 1 23
TORSDOF 31
ENDMDL
MODEL 77
REMARK VINA RESULT:      -6.7      8.904     23.407
ROOT
ATOM      1  C1  SGN B   1      24.290  17.799  25.7350  0.00  0.00     0.000 C
ATOM      2  C2  SGN B   1      25.070  17.300  26.9620  0.00  0.00     0.000 C
ATOM      3  C3  SGN B   1      24.148  17.186  28.1810  0.00  0.00     0.000 C
ATOM      4  C4  SGN B   1      23.458  18.520  28.4470  0.00  0.00     0.000 C
ATOM      5  C5  SGN B   1      22.827  19.022  27.1500  0.00  0.00     0.000 C
ATOM      6  O5  SGN B   1      23.832  19.088  26.1190  0.00  0.00     0.000 O
ATOM      7   O  SGN B   1      24.881  16.767  29.3260  0.00  0.00     0.000 O
ATOM      9  HD  SGN B   1      25.271  17.515  29.1310  0.00  0.00     0.000 HD
ATOM      9   O  SGN B   1      22.463  18.347  29.4390  0.00  0.00     0.000 O
ATOM     11  HD  SGN B   1      22.854  19.095  29.2440  0.00  0.00     0.000 HD
ENDROOT
BRANCH 2 13
ATOM     11   N  SGN B   1      26.414  17.155  26.3720  0.00  0.00     0.000 N
ATOM     13  HD  SGN B   1      25.736  16.735  26.0320  0.00  0.00     0.000 HD
ATOM     13   S  SGN B   1      26.869  15.825  25.5890  0.00  0.00     0.000 S
ATOM     14   O  SGN B   1      25.799  14.907  25.5280  0.00  0.00     0.000 OA
ATOM     15   O  SGN B   1      27.527  16.213  24.3870  0.00  0.00     0.000 OA
ATOM     16   O  SGN B   1      27.971  15.347  26.5840  0.00  0.00     0.000 OA
ENDBRANCH 2 13
BRANCH 5 17
ATOM     17   C  SGN B   1      22.206  20.393  27.2600  0.00  0.00     0.000 C
ATOM     18   O  SGN B   1      21.616  20.793  26.0070  0.00  0.00     0.000 O
ATOM     19   S  SGN B   1      21.924  22.288  25.5310  0.00  0.00     0.000 S
ATOM     20   O  SGN B   1      21.047  22.511  24.4020  0.00  0.00     0.000 OA
ATOM     21   O  SGN B   1      21.602  23.098  26.6830  0.00  0.00     0.000 OA
ATOM     22   O  SGN B   1      23.328  22.291  25.1840  0.00  0.00     0.000 OA
ENDBRANCH 5 17
BRANCH 1 23
ATOM     23  O4  IDS B   2      23.569  17.323  24.6800  0.00  0.00     0.000 O
BRANCH 23 27
ATOM     24  C1  IDS B   2      24.770  17.646  20.7200  0.00  0.00     0.000 C
ATOM     25  C2  IDS B   2      24.387  18.973  21.4110  0.00  0.00     0.000 C
ATOM     26  C3  IDS B   2      24.254  18.784  22.9200  0.00  0.00     0.000 C
ATOM     27  C4  IDS B   2      23.286  17.675  23.3100  0.00  0.00     0.000 C
ATOM     28  C5  IDS B   2      23.398  16.503  22.3140  0.00  0.00     0.000 C
ATOM     29  O5  IDS B   2      24.638  16.541  21.6240  0.00  0.00     0.000 O
ATOM     30   O  IDS B   2      23.781  19.992  23.5030  0.00  0.00     0.000 O
ATOM     32  HD  IDS B   2      22.927  20.104  23.4110  0.00  0.00     0.000 HD
BRANCH 25 32
ATOM     32   O  IDS B   2      25.395  20.037  21.1800  0.00  0.00     0.000 O
ATOM     33   S  IDS B   2      25.010  21.453  20.4260  0.00  0.00     0.000 S
ATOM     34   O  IDS B   2      26.270  22.136  20.1800  0.00  0.00     0.000 OA
ATOM     35   O  IDS B   2      24.309  21.165  19.1830  0.00  0.00     0.000 OA
ATOM     36   O  IDS B   2      24.190  22.184  21.3650  0.00  0.00     0.000 OA
ENDBRANCH 25 32
BRANCH 28 37
ATOM     37   C  IDS B   2      23.187  15.074  22.8560  0.00  0.00     0.000 C
ATOM     38   O  IDS B   2      23.503  14.221  22.0600  0.00  0.00     0.000 OA
ATOM     39   O  IDS B   2      22.801  14.752  24.0060  0.00  0.00     0.000 OA
ENDBRANCH 28 37
BRANCH 24 40
ATOM     40  O4  SUS B   3      24.869  17.592  19.3750  0.00  0.00     0.000 O
BRANCH 40 44
ATOM     41  C1  SUS B   3      27.814  15.724  17.0540  0.00  0.00     0.000 C
ATOM     42  C2  SUS B   3      26.487  14.965  17.2540  0.00  0.00     0.000 C
ATOM     43  C3  SUS B   3      25.403  15.951  17.6830  0.00  0.00     0.000 C
ATOM     44  C4  SUS B   3      25.879  16.699  18.9180  0.00  0.00     0.000 C
ATOM     45  C5  SUS B   3      27.133  17.474  18.5690  0.00  0.00     0.000 C
ATOM     46  O5  SUS B   3      28.154  16.531  18.1870  0.00  0.00     0.000 O
BRANCH 42 49
ATOM     47   N  SUS B   3      25.647  13.765  17.0930  0.00  0.00     0.000 N
ATOM     49  HD  SUS B   3      25.341  13.407  17.8200  0.00  0.00     0.000 HD
ATOM     49   S  SUS B   3      26.367  12.617  16.2380  0.00  0.00     0.000 S
ATOM     50   O  SUS B   3      27.589  12.262  16.8440  0.00  0.00     0.000 OA
ATOM     51   O  SUS B   3      25.299  11.519  16.4770  0.00  0.00     0.000 OA
ATOM     52   O  SUS B   3      26.397  12.996  14.8810  0.00  0.00     0.000 OA
ENDBRANCH 42 49
BRANCH 43 53
ATOM     53   O  SUS B   3      24.186  15.179  18.0020  0.00  0.00     0.000 O
ATOM     54   S  SUS B   3      22.820  15.553  17.1680  0.00  0.00     0.000 S
ATOM     55   O  SUS B   3      23.003  15.086  15.8000  0.00  0.00     0.000 OA
ATOM     56   O  SUS B   3      21.767  14.860  17.8870  0.00  0.00     0.000 OA
ATOM     57   O  SUS B   3      22.691  17.012  17.2170  0.00  0.00     0.000 OA
ENDBRANCH 43 53
BRANCH 45 58
ATOM     58   C  SUS B   3      27.613  18.326  19.7230  0.00  0.00     0.000 C
ATOM     59   S  SUS B   3      29.720  18.959  21.0440  0.00  0.00     0.000 S
ATOM     60   O  SUS B   3      29.049  18.299  19.7700  0.00  0.00     0.000 O
ATOM     61   O  SUS B   3      29.569  17.980  22.1030  0.00  0.00     0.000 OA
ATOM     62   O  SUS B   3      31.080  19.086  20.5940  0.00  0.00     0.000 OA
ATOM     63   O  SUS B   3      29.029  20.184  21.2460  0.00  0.00     0.000 OA
ENDBRANCH 45 58
BRANCH 41 64
ATOM     64  O4  IDS B   4      27.900  16.380  15.8510  0.00  0.00     0.000 O
BRANCH 64 68
ATOM     65  C1  IDS B   4      29.355  17.565  12.7280  0.00  0.00     0.000 C
ATOM     66  C2  IDS B   4      29.415  16.076  13.0920  0.00  0.00     0.000 C
ATOM     67  C3  IDS B   4      29.853  15.796  14.5200  0.00  0.00     0.000 C
ATOM     68  C4  IDS B   4      29.253  16.765  15.5210  0.00  0.00     0.000 C
ATOM     69  C5  IDS B   4      29.361  18.181  14.9400  0.00  0.00     0.000 C
ATOM     70  O5  IDS B   4      28.615  18.248  13.7230  0.00  0.00     0.000 O
ATOM     71   O  IDS B   4      31.262  15.888  14.5520  0.00  0.00     0.000 O
ATOM     73  HD  IDS B   4      30.487  15.804  14.1750  0.00  0.00     0.000 HD
BRANCH 66 73
ATOM     73   O  IDS B   4      28.066  15.507  12.9780  0.00  0.00     0.000 O
ATOM     74   S  IDS B   4      27.591  14.966  11.5290  0.00  0.00     0.000 S
ATOM     75   O  IDS B   4      27.729  16.078  10.6120  0.00  0.00     0.000 OA
ATOM     76   O  IDS B   4      26.225  14.585  11.7880  0.00  0.00     0.000 OA
ATOM     77   O  IDS B   4      28.468  13.862  11.2230  0.00  0.00     0.000 OA
ENDBRANCH 66 73
BRANCH 69 78
ATOM     78   C  IDS B   4      29.002  19.291  15.9180  0.00  0.00     0.000 C
ATOM     79   O  IDS B   4      27.824  19.628  16.0230  0.00  0.00     0.000 OA
ATOM     80   O  IDS B   4      29.895  19.748  16.6550  0.00  0.00     0.000 OA
ENDBRANCH 69 78
BRANCH 65 81
ATOM     81  O4  SGN B   5      30.614  18.021  12.4790  0.00  0.00     0.000 O
BRANCH 81 85
ATOM     82  C1  SGN B   5      32.684  21.170  10.6240  0.00  0.00     0.000 C
ATOM     83  C2  SGN B   5      32.456  21.281  12.1390  0.00  0.00     0.000 C
ATOM     84  C3  SGN B   5      32.127  19.896  12.7120  0.00  0.00     0.000 C
ATOM     85  C4  SGN B   5      30.935  19.318  11.9690  0.00  0.00     0.000 C
ATOM     86  C5  SGN B   5      31.288  19.235  10.4870  0.00  0.00     0.000 C
ATOM     87  O5  SGN B   5      31.567  20.563  10.0030  0.00  0.00     0.000 O
ATOM     88   O  SGN B   5      31.860  20.000  14.0940  0.00  0.00     0.000 O
ATOM     90  HD  SGN B   5      32.601  19.717  13.7450  0.00  0.00     0.000 HD
BRANCH 83 92
ATOM     90   N  SGN B   5      32.666  22.733  11.9760  0.00  0.00     0.000 N
ATOM     92  HD  SGN B   5      31.926  23.132  11.7680  0.00  0.00     0.000 HD
ATOM     92   S  SGN B   5      33.560  23.490  13.0630  0.00  0.00     0.000 S
ATOM     93   O  SGN B   5      33.563  24.856  12.6320  0.00  0.00     0.000 OA
ATOM     94   O  SGN B   5      33.008  23.143  14.3270  0.00  0.00     0.000 OA
ATOM     95   O  SGN B   5      34.920  22.832  12.9680  0.00  0.00     0.000 OA
ENDBRANCH 83 92
BRANCH 86 96
ATOM     96   C  SGN B   5      30.188  18.661   9.6180  0.00  0.00     0.000 C
ATOM     97   O  SGN B   5      28.952  19.338   9.8590  0.00  0.00     0.000 O
ATOM     98   S  SGN B   5      28.179  19.880   8.5630  0.00  0.00     0.000 S
ATOM     99   O  SGN B   5      26.914  20.313   9.1060  0.00  0.00     0.000 OA
ATOM    100   O  SGN B   5      28.967  20.915   7.9990  0.00  0.00     0.000 OA
ATOM    101   O  SGN B   5      28.068  18.739   7.7130  0.00  0.00     0.000 OA
ENDBRANCH 86 96
BRANCH 82 102
ATOM    102  O4  IDS B   6      33.826  20.493  10.3140  0.00  0.00     0.000 O
BRANCH 102 106
ATOM    103  C1  IDS B   6      37.146  20.021   8.8960  0.00  0.00     0.000 C
ATOM    104  C2  IDS B   6      36.850  21.209   9.8250  0.00  0.00     0.000 C
ATOM    105  C3  IDS B   6      35.581  21.975   9.5050  0.00  0.00     0.000 C
ATOM    106  C4  IDS B   6      34.427  21.065   9.1240  0.00  0.00     0.000 C
ATOM    107  C5  IDS B   6      34.925  19.964   8.1830  0.00  0.00     0.000 C
ATOM    108  O5  IDS B   6      35.994  19.212   8.7610  0.00  0.00     0.000 O
ATOM    109   O  IDS B   6      35.869  22.888   8.4590  0.00  0.00     0.000 O
ATOM    111  HD  IDS B   6      36.563  22.546   8.0680  0.00  0.00     0.000 HD
BRANCH 104 111
ATOM    111   O  IDS B   6      36.667  20.710  11.1970  0.00  0.00     0.000 O
ATOM    112   S  IDS B   6      37.865  20.915  12.2390  0.00  0.00     0.000 S
ATOM    113   O  IDS B   6      38.999  20.236  11.6310  0.00  0.00     0.000 OA
ATOM    114   O  IDS B   6      38.055  22.355  12.4500  0.00  0.00     0.000 OA
ATOM    115   O  IDS B   6      37.306  20.220  13.3780  0.00  0.00     0.000 OA
ENDBRANCH 104 111
BRANCH 107 116
ATOM    116   C  IDS B   6      33.768  19.036   7.8360  0.00  0.00     0.000 C
ATOM    117   O  IDS B   6      33.003  19.417   6.9870  0.00  0.00     0.000 OA
ATOM    118   O  IDS B   6      33.623  17.963   8.4020  0.00  0.00     0.000 OA
ENDBRANCH 107 116
BRANCH 103 119
ATOM    119  O4  SGN B   7      37.735  20.597   7.8160  0.00  0.00     0.000 O
BRANCH 119 123
ATOM    120  C1  SGN B   7      40.572  19.476   4.9550  0.00  0.00     0.000 C
ATOM    121  C2  SGN B   7      39.124  18.994   4.7510  0.00  0.00     0.000 C
ATOM    122  C3  SGN B   7      38.159  19.802   5.6280  0.00  0.00     0.000 C
ATOM    123  C4  SGN B   7      38.623  19.760   7.0750  0.00  0.00     0.000 C
ATOM    124  C5  SGN B   7      40.076  20.252   7.1720  0.00  0.00     0.000 C
ATOM    125  O5  SGN B   7      40.948  19.463   6.3310  0.00  0.00     0.000 O
ATOM    126   O  SGN B   7      36.839  19.263   5.4870  0.00  0.00     0.000 O
ATOM    128  HD  SGN B   7      37.660  19.282   5.2100  0.00  0.00     0.000 HD
BRANCH 121 130
ATOM    128   N  SGN B   7      39.605  18.730   3.3920  0.00  0.00     0.000 N
ATOM    130  HD  SGN B   7      39.800  17.915   3.6120  0.00  0.00     0.000 HD
ATOM    130   S  SGN B   7      38.781  17.822   2.3490  0.00  0.00     0.000 S
ATOM    131   O  SGN B   7      37.459  18.346   2.3630  0.00  0.00     0.000 OA
ATOM    132   O  SGN B   7      39.515  17.757   1.1370  0.00  0.00     0.000 OA
ATOM    133   O  SGN B   7      38.967  16.409   3.0000  0.00  0.00     0.000 OA
ENDBRANCH 121 130
BRANCH 124 134
ATOM    134   C  SGN B   7      40.665  20.139   8.5470  0.00  0.00     0.000 C
ATOM    135   O  SGN B   7      41.782  19.235   8.4950  0.00  0.00     0.000 O
ATOM    136   S  SGN B   7      42.633  19.097   9.8070  0.00  0.00     0.000 S
ATOM    137   O  SGN B   7      43.617  18.074   9.5480  0.00  0.00     0.000 OA
ATOM    138   O  SGN B   7      41.688  18.724  10.8350  0.00  0.00     0.000 OA
ATOM    139   O  SGN B   7      43.193  20.432   9.9590  0.00  0.00     0.000 OA
ENDBRANCH 124 134
BRANCH 120 140
ATOM    140  O4  IDS B   8      41.106  20.651   4.6040  0.00  0.00     0.000 O
BRANCH 140 144
ATOM    141  C1  IDS B   8      42.794  23.439   3.0750  0.00  0.00     0.000 C
ATOM    142  C2  IDS B   8      43.048  23.070   4.5640  0.00  0.00     0.000 C
ATOM    143  C3  IDS B   8      41.748  22.856   5.3630  0.00  0.00     0.000 C
ATOM    144  C4  IDS B   8      40.725  22.033   4.5820  0.00  0.00     0.000 C
ATOM    145  C5  IDS B   8      40.638  22.533   3.1330  0.00  0.00     0.000 C
ATOM    146  O5  IDS B   8      41.907  22.497   2.4850  0.00  0.00     0.000 O
BRANCH 142 147
ATOM    147   O  IDS B   8      43.822  21.803   4.6360  0.00  0.00     0.000 O
ATOM    148   S  IDS B   8      44.840  21.514   5.8650  0.00  0.00     0.000 S
ATOM    149   O  IDS B   8      45.098  22.774   6.5260  0.00  0.00     0.000 OA
ATOM    150   O  IDS B   8      44.155  20.562   6.7200  0.00  0.00     0.000 OA
ATOM    151   O  IDS B   8      46.035  20.970   5.2500  0.00  0.00     0.000 OA
ENDBRANCH 142 147
BRANCH 145 152
ATOM    152   C  IDS B   8      39.710  21.691   2.2800  0.00  0.00     0.000 C
ATOM    153   O  IDS B   8      40.168  21.053   1.3380  0.00  0.00     0.000 OA
ATOM    154   O  IDS B   8      38.524  21.639   2.5510  0.00  0.00     0.000 OA
ENDBRANCH 145 152
ENDBRANCH 140 144
ENDBRANCH 120 140
ENDBRANCH 119 123
ENDBRANCH 103 119
ENDBRANCH 102 106
ENDBRANCH 82 102
ENDBRANCH 81 85
ENDBRANCH 65 81
ENDBRANCH 64 68
ENDBRANCH 41 64
ENDBRANCH 40 44
ENDBRANCH 24 40
ENDBRANCH 23 27
ENDBRANCH 1 23
TORSDOF 31
ENDMDL
MODEL 78
REMARK VINA RESULT:      -6.7     10.734     19.300
ROOT
ATOM      1  C1  SGN B   1      19.845  19.839  19.5600  0.00  0.00     0.000 C
ATOM      2  C2  SGN B   1      18.800  18.722  19.3990  0.00  0.00     0.000 C
ATOM      3  C3  SGN B   1      19.280  17.430  20.0690  0.00  0.00     0.000 C
ATOM      4  C4  SGN B   1      20.641  17.022  19.5140  0.00  0.00     0.000 C
ATOM      5  C5  SGN B   1      21.584  18.221  19.5760  0.00  0.00     0.000 C
ATOM      6  O5  SGN B   1      20.991  19.338  18.8850  0.00  0.00     0.000 O
ATOM      7   O  SGN B   1      18.331  16.386  19.8790  0.00  0.00     0.000 O
ATOM      9  HD  SGN B   1      18.552  16.574  19.0630  0.00  0.00     0.000 HD
ATOM      9   O  SGN B   1      21.160  15.952  20.2810  0.00  0.00     0.000 O
ATOM     11  HD  SGN B   1      21.381  16.139  19.4650  0.00  0.00     0.000 HD
ENDROOT
BRANCH 2 13
ATOM     11   N  SGN B   1      17.664  19.310  18.6640  0.00  0.00     0.000 N
ATOM     13  HD  SGN B   1      18.034  19.739  19.3200  0.00  0.00     0.000 HD
ATOM     13   S  SGN B   1      16.640  20.344  19.3500  0.00  0.00     0.000 S
ATOM     14   O  SGN B   1      17.035  20.609  20.6780  0.00  0.00     0.000 OA
ATOM     15   O  SGN B   1      16.428  21.430  18.4530  0.00  0.00     0.000 OA
ATOM     16   O  SGN B   1      15.360  19.454  19.3050  0.00  0.00     0.000 OA
ENDBRANCH 2 13
BRANCH 5 17
ATOM     17   C  SGN B   1      22.935  17.973  18.9520  0.00  0.00     0.000 C
ATOM     18   O  SGN B   1      22.821  17.106  17.8060  0.00  0.00     0.000 O
ATOM     19   S  SGN B   1      23.896  15.926  17.7100  0.00  0.00     0.000 S
ATOM     20   O  SGN B   1      23.720  15.365  16.3870  0.00  0.00     0.000 OA
ATOM     21   O  SGN B   1      25.165  16.589  17.8930  0.00  0.00     0.000 OA
ATOM     22   O  SGN B   1      23.550  15.013  18.7770  0.00  0.00     0.000 OA
ENDBRANCH 5 17
BRANCH 1 23
ATOM     23  O4  IDS B   2      20.187  20.846  20.4130  0.00  0.00     0.000 O
BRANCH 23 27
ATOM     24  C1  IDS B   2      23.313  19.962  22.9970  0.00  0.00     0.000 C
ATOM     25  C2  IDS B   2      21.906  19.557  23.4900  0.00  0.00     0.000 C
ATOM     26  C3  IDS B   2      20.884  19.650  22.3590  0.00  0.00     0.000 C
ATOM     27  C4  IDS B   2      20.847  21.015  21.6850  0.00  0.00     0.000 C
ATOM     28  C5  IDS B   2      22.273  21.595  21.5910  0.00  0.00     0.000 C
ATOM     29  O5  IDS B   2      23.247  20.568  21.7000  0.00  0.00     0.000 O
ATOM     30   O  IDS B   2      19.586  19.393  22.8800  0.00  0.00     0.000 O
ATOM     32  HD  IDS B   2      19.240  20.074  23.2880  0.00  0.00     0.000 HD
BRANCH 25 32
ATOM     32   O  IDS B   2      21.872  18.169  24.0120  0.00  0.00     0.000 O
ATOM     33   S  IDS B   2      21.417  17.831  25.5610  0.00  0.00     0.000 S
ATOM     34   O  IDS B   2      21.719  16.425  25.7750  0.00  0.00     0.000 OA
ATOM     35   O  IDS B   2      22.160  18.682  26.4800  0.00  0.00     0.000 OA
ATOM     36   O  IDS B   2      19.994  18.077  25.6120  0.00  0.00     0.000 OA
ENDBRANCH 25 32
BRANCH 28 37
ATOM     37   C  IDS B   2      22.618  22.463  20.3630  0.00  0.00     0.000 C
ATOM     38   O  IDS B   2      22.202  23.594  20.4580  0.00  0.00     0.000 OA
ATOM     39   O  IDS B   2      23.308  22.126  19.3700  0.00  0.00     0.000 OA
ENDBRANCH 28 37
BRANCH 24 40
ATOM     40  O4  SUS B   3      24.343  20.009  23.8680  0.00  0.00     0.000 O
BRANCH 40 44
ATOM     41  C1  SUS B   3      28.465  19.640  23.2200  0.00  0.00     0.000 C
ATOM     42  C2  SUS B   3      27.769  20.889  22.6420  0.00  0.00     0.000 C
ATOM     43  C3  SUS B   3      26.438  21.101  23.3590  0.00  0.00     0.000 C
ATOM     44  C4  SUS B   3      25.613  19.828  23.2520  0.00  0.00     0.000 C
ATOM     45  C5  SUS B   3      26.360  18.700  23.9340  0.00  0.00     0.000 C
ATOM     46  O5  SUS B   3      27.604  18.496  23.2340  0.00  0.00     0.000 O
BRANCH 42 49
ATOM     47   N  SUS B   3      27.852  21.679  21.4010  0.00  0.00     0.000 N
ATOM     49  HD  SUS B   3      27.704  21.254  20.6610  0.00  0.00     0.000 HD
ATOM     49   S  SUS B   3      29.243  22.461  21.2580  0.00  0.00     0.000 S
ATOM     50   O  SUS B   3      30.314  21.546  21.3090  0.00  0.00     0.000 OA
ATOM     51   O  SUS B   3      29.019  22.960  19.8080  0.00  0.00     0.000 OA
ATOM     52   O  SUS B   3      29.265  23.543  22.1600  0.00  0.00     0.000 OA
ENDBRANCH 42 49
BRANCH 43 53
ATOM     53   O  SUS B   3      25.734  22.213  22.6920  0.00  0.00     0.000 O
ATOM     54   S  SUS B   3      25.365  23.525  23.6110  0.00  0.00     0.000 S
ATOM     55   O  SUS B   3      26.612  24.220  23.8990  0.00  0.00     0.000 OA
ATOM     56   O  SUS B   3      24.448  24.288  22.7830  0.00  0.00     0.000 OA
ATOM     57   O  SUS B   3      24.747  23.013  24.8370  0.00  0.00     0.000 OA
ENDBRANCH 43 53
BRANCH 45 58
ATOM     58   C  SUS B   3      25.555  17.419  23.9560  0.00  0.00     0.000 C
ATOM     59   S  SUS B   3      24.843  15.440  22.4860  0.00  0.00     0.000 S
ATOM     60   O  SUS B   3      25.772  16.699  22.7310  0.00  0.00     0.000 O
ATOM     61   O  SUS B   3      23.570  15.986  22.0550  0.00  0.00     0.000 OA
ATOM     62   O  SUS B   3      25.556  14.785  21.4220  0.00  0.00     0.000 OA
ATOM     63   O  SUS B   3      24.818  14.740  23.7210  0.00  0.00     0.000 OA
ENDBRANCH 45 58
BRANCH 41 64
ATOM     64  O4  IDS B   4      29.114  19.869  24.4090  0.00  0.00     0.000 O
BRANCH 64 68
ATOM     65  C1  IDS B   4      32.019  19.784  26.6060  0.00  0.00     0.000 C
ATOM     66  C2  IDS B   4      32.199  19.966  25.0940  0.00  0.00     0.000 C
ATOM     67  C3  IDS B   4      31.384  19.005  24.2440  0.00  0.00     0.000 C
ATOM     68  C4  IDS B   4      29.985  18.780  24.7860  0.00  0.00     0.000 C
ATOM     69  C5  IDS B   4      30.088  18.578  26.3040  0.00  0.00     0.000 C
ATOM     70  O5  IDS B   4      30.633  19.757  26.9000  0.00  0.00     0.000 O
ATOM     71   O  IDS B   4      32.085  17.779  24.2080  0.00  0.00     0.000 O
ATOM     73  HD  IDS B   4      31.994  18.631  24.3370  0.00  0.00     0.000 HD
BRANCH 66 73
ATOM     73   O  IDS B   4      31.735  21.309  24.7200  0.00  0.00     0.000 O
ATOM     74   S  IDS B   4      32.820  22.344  24.1130  0.00  0.00     0.000 S
ATOM     75   O  IDS B   4      33.878  22.451  25.0950  0.00  0.00     0.000 OA
ATOM     76   O  IDS B   4      32.034  23.543  23.9640  0.00  0.00     0.000 OA
ATOM     77   O  IDS B   4      33.255  21.760  22.8660  0.00  0.00     0.000 OA
ENDBRANCH 66 73
BRANCH 69 78
ATOM     78   C  IDS B   4      28.795  18.123  26.9670  0.00  0.00     0.000 C
ATOM     79   O  IDS B   4      28.239  17.110  26.5440  0.00  0.00     0.000 OA
ATOM     80   O  IDS B   4      28.401  18.727  27.9810  0.00  0.00     0.000 OA
ENDBRANCH 69 78
BRANCH 65 81
ATOM     81  O4  SGN B   5      32.755  18.718  27.0260  0.00  0.00     0.000 O
BRANCH 81 85
ATOM     82  C1  SGN B   5      34.994  17.206  30.2410  0.00  0.00     0.000 C
ATOM     83  C2  SGN B   5      33.466  17.230  30.4040  0.00  0.00     0.000 C
ATOM     84  C3  SGN B   5      32.805  17.356  29.0250  0.00  0.00     0.000 C
ATOM     85  C4  SGN B   5      33.350  18.585  28.3190  0.00  0.00     0.000 C
ATOM     86  C5  SGN B   5      34.864  18.435  28.1950  0.00  0.00     0.000 C
ATOM     87  O5  SGN B   5      35.428  18.342  29.5170  0.00  0.00     0.000 O
ATOM     88   O  SGN B   5      31.404  17.436  29.1710  0.00  0.00     0.000 O
ATOM     90  HD  SGN B   5      31.844  16.729  28.9340  0.00  0.00     0.000 HD
BRANCH 83 92
ATOM     90   N  SGN B   5      33.833  16.982  31.8120  0.00  0.00     0.000 N
ATOM     92  HD  SGN B   5      34.185  17.688  32.1710  0.00  0.00     0.000 HD
ATOM     92   S  SGN B   5      32.787  16.204  32.7360  0.00  0.00     0.000 S
ATOM     93   O  SGN B   5      33.426  16.132  34.0150  0.00  0.00     0.000 OA
ATOM     94   O  SGN B   5      31.554  16.900  32.5930  0.00  0.00     0.000 OA
ATOM     95   O  SGN B   5      32.621  14.853  32.0750  0.00  0.00     0.000 OA
ENDBRANCH 83 92
BRANCH 86 96
ATOM     96   C  SGN B   5      35.547  19.592  27.4940  0.00  0.00     0.000 C
ATOM     97   O  SGN B   5      36.435  20.266  28.3880  0.00  0.00     0.000 O
ATOM     98   S  SGN B   5      37.929  20.501  27.8550  0.00  0.00     0.000 S
ATOM     99   O  SGN B   5      38.497  21.360  28.8660  0.00  0.00     0.000 OA
ATOM    100   O  SGN B   5      38.547  19.229  27.7440  0.00  0.00     0.000 OA
ATOM    101   O  SGN B   5      37.758  21.148  26.5950  0.00  0.00     0.000 OA
ENDBRANCH 86 96
BRANCH 82 102
ATOM    102  O4  IDS B   6      35.440  16.064  29.6460  0.00  0.00     0.000 O
BRANCH 102 106
ATOM    103  C1  IDS B   6      38.144  13.676  30.1360  0.00  0.00     0.000 C
ATOM    104  C2  IDS B   6      37.841  14.749  31.1940  0.00  0.00     0.000 C
ATOM    105  C3  IDS B   6      37.656  16.153  30.6510  0.00  0.00     0.000 C
ATOM    106  C4  IDS B   6      36.857  16.181  29.3600  0.00  0.00     0.000 C
ATOM    107  C5  IDS B   6      37.322  15.049  28.4390  0.00  0.00     0.000 C
ATOM    108  O5  IDS B   6      37.219  13.772  29.0700  0.00  0.00     0.000 O
ATOM    109   O  IDS B   6      38.939  16.726  30.4610  0.00  0.00     0.000 O
ATOM    111  HD  IDS B   6      39.464  16.041  30.3850  0.00  0.00     0.000 HD
BRANCH 104 111
ATOM    111   O  IDS B   6      36.573  14.420  31.8620  0.00  0.00     0.000 O
ATOM    112   S  IDS B   6      36.610  14.085  33.4260  0.00  0.00     0.000 S
ATOM    113   O  IDS B   6      37.515  12.951  33.5360  0.00  0.00     0.000 OA
ATOM    114   O  IDS B   6      37.043  15.286  34.1490  0.00  0.00     0.000 OA
ATOM    115   O  IDS B   6      35.217  13.746  33.6260  0.00  0.00     0.000 OA
ENDBRANCH 104 111
BRANCH 107 116
ATOM    116   C  IDS B   6      36.490  15.064  27.1630  0.00  0.00     0.000 C
ATOM    117   O  IDS B   6      36.758  14.234  26.3310  0.00  0.00     0.000 OA
ATOM    118   O  IDS B   6      35.602  15.885  26.9920  0.00  0.00     0.000 OA
ENDBRANCH 107 116
BRANCH 103 119
ATOM    119  O4  SGN B   7      39.480  13.799  29.9260  0.00  0.00     0.000 O
BRANCH 119 123
ATOM    120  C1  SGN B   7      42.625  11.258  28.8610  0.00  0.00     0.000 C
ATOM    121  C2  SGN B   7      41.474  11.429  27.8520  0.00  0.00     0.000 C
ATOM    122  C3  SGN B   7      40.634  12.665  28.2000  0.00  0.00     0.000 C
ATOM    123  C4  SGN B   7      40.177  12.585  29.6470  0.00  0.00     0.000 C
ATOM    124  C5  SGN B   7      41.394  12.408  30.5700  0.00  0.00     0.000 C
ATOM    125  O5  SGN B   7      42.154  11.234  30.2080  0.00  0.00     0.000 O
ATOM    126   O  SGN B   7      39.519  12.738  27.3040  0.00  0.00     0.000 O
ATOM    128  HD  SGN B   7      40.276  12.370  27.5080  0.00  0.00     0.000 HD
BRANCH 121 130
ATOM    128   N  SGN B   7      42.438  11.101  26.7990  0.00  0.00     0.000 N
ATOM    130  HD  SGN B   7      42.446  10.273  27.0550  0.00  0.00     0.000 HD
ATOM    130   S  SGN B   7      42.025  10.265  25.4860  0.00  0.00     0.000 S
ATOM    131   O  SGN B   7      40.868  10.920  24.9770  0.00  0.00     0.000 OA
ATOM    132   O  SGN B   7      43.178  10.111  24.6740  0.00  0.00     0.000 OA
ATOM    133   O  SGN B   7      41.792   8.850  26.1150  0.00  0.00     0.000 OA
ENDBRANCH 121 130
BRANCH 124 134
ATOM    134   C  SGN B   7      41.037  12.203  32.0130  0.00  0.00     0.000 C
ATOM    135   O  SGN B   7      41.428  10.874  32.3970  0.00  0.00     0.000 O
ATOM    136   S  SGN B   7      41.278  10.512  33.9180  0.00  0.00     0.000 S
ATOM    137   O  SGN B   7      41.626   9.117  34.0400  0.00  0.00     0.000 OA
ATOM    138   O  SGN B   7      39.894  10.779  34.2360  0.00  0.00     0.000 OA
ATOM    139   O  SGN B   7      42.227  11.416  34.5490  0.00  0.00     0.000 OA
ENDBRANCH 124 134
BRANCH 120 140
ATOM    140  O4  IDS B   8      43.697  12.041  29.0290  0.00  0.00     0.000 O
BRANCH 140 144
ATOM    141  C1  IDS B   8      45.687  15.016  29.4110  0.00  0.00     0.000 C
ATOM    142  C2  IDS B   8      44.487  14.979  28.4220  0.00  0.00     0.000 C
ATOM    143  C3  IDS B   8      44.498  13.741  27.5060  0.00  0.00     0.000 C
ATOM    144  C4  IDS B   8      44.838  12.464  28.2730  0.00  0.00     0.000 C
ATOM    145  C5  IDS B   8      46.030  12.710  29.2100  0.00  0.00     0.000 C
ATOM    146  O5  IDS B   8      45.776  13.783  30.1140  0.00  0.00     0.000 O
BRANCH 142 147
ATOM    147   O  IDS B   8      43.214  14.947  29.1890  0.00  0.00     0.000 O
ATOM    148   S  IDS B   8      42.323  16.288  29.3860  0.00  0.00     0.000 S
ATOM    149   O  IDS B   8      43.160  17.421  29.0640  0.00  0.00     0.000 OA
ATOM    150   O  IDS B   8      41.200  16.143  28.4780  0.00  0.00     0.000 OA
ATOM    151   O  IDS B   8      41.930  16.283  30.7820  0.00  0.00     0.000 OA
ENDBRANCH 142 147
BRANCH 145 152
ATOM    152   C  IDS B   8      46.353  11.506  30.0720  0.00  0.00     0.000 C
ATOM    153   O  IDS B   8      46.770  10.481  29.5460  0.00  0.00     0.000 OA
ATOM    154   O  IDS B   8      46.214  11.577  31.2800  0.00  0.00     0.000 OA
ENDBRANCH 145 152
ENDBRANCH 140 144
ENDBRANCH 120 140
ENDBRANCH 119 123
ENDBRANCH 103 119
ENDBRANCH 102 106
ENDBRANCH 82 102
ENDBRANCH 81 85
ENDBRANCH 65 81
ENDBRANCH 64 68
ENDBRANCH 41 64
ENDBRANCH 40 44
ENDBRANCH 24 40
ENDBRANCH 23 27
ENDBRANCH 1 23
TORSDOF 31
ENDMDL
MODEL 79
REMARK VINA RESULT:      -6.7      6.159     11.245
ROOT
ATOM      1  C1  SGN B   1      28.459  18.362  18.9760  0.00  0.00     0.000 C
ATOM      2  C2  SGN B   1      28.476  19.334  17.7850  0.00  0.00     0.000 C
ATOM      3  C3  SGN B   1      27.099  19.396  17.1160  0.00  0.00     0.000 C
ATOM      4  C4  SGN B   1      26.650  17.998  16.7050  0.00  0.00     0.000 C
ATOM      5  C5  SGN B   1      26.794  17.056  17.8980  0.00  0.00     0.000 C
ATOM      6  O5  SGN B   1      28.147  17.106  18.3900  0.00  0.00     0.000 O
ATOM      7   O  SGN B   1      27.129  20.262  15.9880  0.00  0.00     0.000 O
ATOM      9  HD  SGN B   1      27.708  19.659  15.7620  0.00  0.00     0.000 HD
ATOM      9   O  SGN B   1      25.301  18.043  16.2780  0.00  0.00     0.000 O
ATOM     11  HD  SGN B   1      25.879  17.439  16.0530  0.00  0.00     0.000 HD
ENDROOT
BRANCH 2 13
ATOM     11   N  SGN B   1      29.864  19.833  17.7840  0.00  0.00     0.000 N
ATOM     13  HD  SGN B   1      29.389  19.857  18.5070  0.00  0.00     0.000 HD
ATOM     13   S  SGN B   1      30.363  20.991  18.7840  0.00  0.00     0.000 S
ATOM     14   O  SGN B   1      29.312  21.376  19.6420  0.00  0.00     0.000 OA
ATOM     15   O  SGN B   1      31.613  20.597  19.3410  0.00  0.00     0.000 OA
ATOM     16   O  SGN B   1      30.660  22.092  17.7200  0.00  0.00     0.000 OA
ENDBRANCH 2 13
BRANCH 5 17
ATOM     17   C  SGN B   1      26.483  15.614  17.5840  0.00  0.00     0.000 C
ATOM     18   O  SGN B   1      25.076  15.345  17.7440  0.00  0.00     0.000 O
ATOM     19   S  SGN B   1      24.703  14.002  18.5290  0.00  0.00     0.000 S
ATOM     20   O  SGN B   1      23.276  13.846  18.3490  0.00  0.00     0.000 OA
ATOM     21   O  SGN B   1      25.485  12.981  17.8710  0.00  0.00     0.000 OA
ATOM     22   O  SGN B   1      25.092  14.247  19.9010  0.00  0.00     0.000 OA
ENDBRANCH 5 17
BRANCH 1 23
ATOM     23  O4  IDS B   2      28.217  18.344  20.3180  0.00  0.00     0.000 O
BRANCH 23 27
ATOM     24  C1  IDS B   2      26.396  18.861  24.0120  0.00  0.00     0.000 C
ATOM     25  C2  IDS B   2      25.584  19.351  22.7930  0.00  0.00     0.000 C
ATOM     26  C3  IDS B   2      26.199  18.850  21.4900  0.00  0.00     0.000 C
ATOM     27  C4  IDS B   2      27.671  19.209  21.3350  0.00  0.00     0.000 C
ATOM     28  C5  IDS B   2      28.382  19.116  22.7010  0.00  0.00     0.000 C
ATOM     29  O5  IDS B   2      27.649  18.298  23.6000  0.00  0.00     0.000 O
ATOM     30   O  IDS B   2      25.500  19.424  20.3910  0.00  0.00     0.000 O
ATOM     32  HD  IDS B   2      25.736  20.240  20.2240  0.00  0.00     0.000 HD
BRANCH 25 32
ATOM     32   O  IDS B   2      24.176  18.885  22.8330  0.00  0.00     0.000 O
ATOM     33   S  IDS B   2      22.909  19.941  22.8680  0.00  0.00     0.000 S
ATOM     34   O  IDS B   2      21.722  19.142  23.1280  0.00  0.00     0.000 OA
ATOM     35   O  IDS B   2      23.128  20.926  23.9180  0.00  0.00     0.000 OA
ATOM     36   O  IDS B   2      22.862  20.539  21.5540  0.00  0.00     0.000 OA
ENDBRANCH 25 32
BRANCH 28 37
ATOM     37   C  IDS B   2      29.854  18.656  22.7160  0.00  0.00     0.000 C
ATOM     38   O  IDS B   2      30.009  17.603  23.2880  0.00  0.00     0.000 OA
ATOM     39   O  IDS B   2      30.828  19.221  22.1610  0.00  0.00     0.000 OA
ENDBRANCH 28 37
BRANCH 24 40
ATOM     40  O4  SUS B   3      26.049  19.256  25.2550  0.00  0.00     0.000 O
BRANCH 40 44
ATOM     41  C1  SUS B   3      26.394  17.220  28.9000  0.00  0.00     0.000 C
ATOM     42  C2  SUS B   3      27.608  18.050  28.4380  0.00  0.00     0.000 C
ATOM     43  C3  SUS B   3      27.154  19.070  27.3960  0.00  0.00     0.000 C
ATOM     44  C4  SUS B   3      26.442  18.338  26.2700  0.00  0.00     0.000 C
ATOM     45  C5  SUS B   3      25.221  17.640  26.8330  0.00  0.00     0.000 C
ATOM     46  O5  SUS B   3      25.665  16.666  27.7990  0.00  0.00     0.000 O
BRANCH 42 49
ATOM     47   N  SUS B   3      29.078  18.146  28.4610  0.00  0.00     0.000 N
ATOM     49  HD  SUS B   3      29.508  17.633  27.9110  0.00  0.00     0.000 HD
ATOM     49   S  SUS B   3      29.689  17.927  29.9260  0.00  0.00     0.000 S
ATOM     50   O  SUS B   3      29.288  16.673  30.4300  0.00  0.00     0.000 OA
ATOM     51   O  SUS B   3      31.178  17.892  29.4960  0.00  0.00     0.000 OA
ATOM     52   O  SUS B   3      29.425  19.063  30.7160  0.00  0.00     0.000 OA
ENDBRANCH 42 49
BRANCH 43 53
ATOM     53   O  SUS B   3      28.355  19.750  26.8720  0.00  0.00     0.000 O
ATOM     54   S  SUS B   3      28.507  21.355  27.1940  0.00  0.00     0.000 S
ATOM     55   O  SUS B   3      28.802  21.489  28.6140  0.00  0.00     0.000 OA
ATOM     56   O  SUS B   3      29.589  21.786  26.3270  0.00  0.00     0.000 OA
ATOM     57   O  SUS B   3      27.219  21.969  26.8590  0.00  0.00     0.000 OA
ENDBRANCH 43 53
BRANCH 45 58
ATOM     58   C  SUS B   3      24.401  16.970  25.7520  0.00  0.00     0.000 C
ATOM     59   S  SUS B   3      24.392  14.955  24.1640  0.00  0.00     0.000 S
ATOM     60   O  SUS B   3      24.990  15.700  25.4260  0.00  0.00     0.000 O
ATOM     61   O  SUS B   3      24.970  15.628  23.0160  0.00  0.00     0.000 OA
ATOM     62   O  SUS B   3      24.923  13.632  24.3570  0.00  0.00     0.000 OA
ATOM     63   O  SUS B   3      22.982  15.068  24.2890  0.00  0.00     0.000 OA
ENDBRANCH 45 58
BRANCH 41 64
ATOM     64  O4  IDS B   4      25.609  17.857  29.8290  0.00  0.00     0.000 O
BRANCH 64 68
ATOM     65  C1  IDS B   4      23.958  17.574  33.0650  0.00  0.00     0.000 C
ATOM     66  C2  IDS B   4      25.060  16.583  32.6710  0.00  0.00     0.000 C
ATOM     67  C3  IDS B   4      24.923  16.016  31.2670  0.00  0.00     0.000 C
ATOM     68  C4  IDS B   4      24.484  17.055  30.2520  0.00  0.00     0.000 C
ATOM     69  C5  IDS B   4      23.346  17.878  30.8720  0.00  0.00     0.000 C
ATOM     70  O5  IDS B   4      23.829  18.544  32.0410  0.00  0.00     0.000 O
ATOM     71   O  IDS B   4      23.970  14.975  31.3270  0.00  0.00     0.000 O
ATOM     73  HD  IDS B   4      24.541  15.539  31.6520  0.00  0.00     0.000 HD
BRANCH 66 73
ATOM     73   O  IDS B   4      26.352  17.282  32.6860  0.00  0.00     0.000 O
ATOM     74   S  IDS B   4      27.424  16.869  33.8250  0.00  0.00     0.000 S
ATOM     75   O  IDS B   4      26.759  17.050  35.0980  0.00  0.00     0.000 OA
ATOM     76   O  IDS B   4      28.491  17.808  33.5820  0.00  0.00     0.000 OA
ATOM     77   O  IDS B   4      27.769  15.495  33.5510  0.00  0.00     0.000 OA
ENDBRANCH 66 73
BRANCH 69 78
ATOM     78   C  IDS B   4      22.648  18.818  29.9000  0.00  0.00     0.000 C
ATOM     79   O  IDS B   4      22.577  18.497  28.7140  0.00  0.00     0.000 OA
ATOM     80   O  IDS B   4      22.080  19.829  30.3520  0.00  0.00     0.000 OA
ENDBRANCH 69 78
BRANCH 65 81
ATOM     81  O4  SGN B   5      22.831  16.888  33.4040  0.00  0.00     0.000 O
BRANCH 81 85
ATOM     82  C1  SGN B   5      19.501  16.909  35.9620  0.00  0.00     0.000 C
ATOM     83  C2  SGN B   5      19.473  17.881  34.7730  0.00  0.00     0.000 C
ATOM     84  C3  SGN B   5      20.494  17.431  33.7180  0.00  0.00     0.000 C
ATOM     85  C4  SGN B   5      21.864  17.316  34.3650  0.00  0.00     0.000 C
ATOM     86  C5  SGN B   5      21.771  16.312  35.5100  0.00  0.00     0.000 C
ATOM     87  O5  SGN B   5      20.815  16.796  36.4730  0.00  0.00     0.000 O
ATOM     88   O  SGN B   5      20.515  18.350  32.6490  0.00  0.00     0.000 O
ATOM     90  HD  SGN B   5      20.118  17.581  32.6420  0.00  0.00     0.000 HD
BRANCH 83 92
ATOM     90   N  SGN B   5      18.369  18.478  35.5490  0.00  0.00     0.000 N
ATOM     92  HD  SGN B   5      18.670  18.906  36.2390  0.00  0.00     0.000 HD
ATOM     92   S  SGN B   5      17.203  19.221  34.7480  0.00  0.00     0.000 S
ATOM     93   O  SGN B   5      16.311  19.683  35.7680  0.00  0.00     0.000 OA
ATOM     94   O  SGN B   5      17.855  20.153  33.8940  0.00  0.00     0.000 OA
ATOM     95   O  SGN B   5      16.598  18.149  33.8680  0.00  0.00     0.000 OA
ENDBRANCH 83 92
BRANCH 86 96
ATOM     96   C  SGN B   5      23.076  16.085  36.2450  0.00  0.00     0.000 C
ATOM     97   O  SGN B   5      23.623  17.328  36.6920  0.00  0.00     0.000 O
ATOM     98   S  SGN B   5      24.041  17.400  38.2380  0.00  0.00     0.000 S
ATOM     99   O  SGN B   5      24.728  18.666  38.3230  0.00  0.00     0.000 OA
ATOM    100   O  SGN B   5      22.851  17.318  39.0060  0.00  0.00     0.000 OA
ATOM    101   O  SGN B   5      24.902  16.277  38.4250  0.00  0.00     0.000 OA
ENDBRANCH 86 96
BRANCH 82 102
ATOM    102  O4  IDS B   6      19.007  15.679  35.6460  0.00  0.00     0.000 O
BRANCH 102 106
ATOM    103  C1  IDS B   6      16.677  12.890  35.8750  0.00  0.00     0.000 C
ATOM    104  C2  IDS B   6      16.165  14.336  35.7730  0.00  0.00     0.000 C
ATOM    105  C3  IDS B   6      16.842  15.324  36.7030  0.00  0.00     0.000 C
ATOM    106  C4  IDS B   6      18.342  15.105  36.8000  0.00  0.00     0.000 C
ATOM    107  C5  IDS B   6      18.640  13.607  36.9120  0.00  0.00     0.000 C
ATOM    108  O5  IDS B   6      18.090  12.871  35.8180  0.00  0.00     0.000 O
ATOM    109   O  IDS B   6      16.234  15.217  37.9800  0.00  0.00     0.000 O
ATOM    111  HD  IDS B   6      15.891  14.421  37.9810  0.00  0.00     0.000 HD
BRANCH 104 111
ATOM    111   O  IDS B   6      16.422  14.841  34.4160  0.00  0.00     0.000 O
ATOM    112   S  IDS B   6      15.199  14.880  33.3830  0.00  0.00     0.000 S
ATOM    113   O  IDS B   6      14.745  13.501  33.3010  0.00  0.00     0.000 OA
ATOM    114   O  IDS B   6      14.196  15.826  33.8870  0.00  0.00     0.000 OA
ATOM    115   O  IDS B   6      15.903  15.338  32.2050  0.00  0.00     0.000 OA
ENDBRANCH 104 111
BRANCH 107 116
ATOM    116   C  IDS B   6      20.147  13.396  36.9720  0.00  0.00     0.000 C
ATOM    117   O  IDS B   6      20.719  13.838  37.9360  0.00  0.00     0.000 OA
ATOM    118   O  IDS B   6      20.743  12.816  36.0780  0.00  0.00     0.000 OA
ENDBRANCH 107 116
BRANCH 103 119
ATOM    119  O4  SGN B   7      16.005  12.386  36.9420  0.00  0.00     0.000 O
BRANCH 119 123
ATOM    120  C1  SGN B   7      14.968   8.590  38.3560  0.00  0.00     0.000 C
ATOM    121  C2  SGN B   7      16.417   9.062  38.5780  0.00  0.00     0.000 C
ATOM    122  C3  SGN B   7      16.525  10.579  38.3790  0.00  0.00     0.000 C
ATOM    123  C4  SGN B   7      15.953  10.961  37.0240  0.00  0.00     0.000 C
ATOM    124  C5  SGN B   7      14.512  10.441  36.8990  0.00  0.00     0.000 C
ATOM    125  O5  SGN B   7      14.458   9.010  37.0920  0.00  0.00     0.000 O
ATOM    126   O  SGN B   7      17.898  10.968  38.4950  0.00  0.00     0.000 O
ATOM    128  HD  SGN B   7      17.298  10.351  38.5900  0.00  0.00     0.000 HD
BRANCH 121 130
ATOM    128   N  SGN B   7      16.754   7.693  38.9790  0.00  0.00     0.000 N
ATOM    130  HD  SGN B   7      17.534   7.770  38.6110  0.00  0.00     0.000 HD
ATOM    130   S  SGN B   7      17.795   7.377  40.1660  0.00  0.00     0.000 S
ATOM    131   O  SGN B   7      17.361   8.172  41.2630  0.00  0.00     0.000 OA
ATOM    132   O  SGN B   7      17.905   5.969  40.2990  0.00  0.00     0.000 OA
ATOM    133   O  SGN B   7      19.136   7.817  39.4870  0.00  0.00     0.000 OA
ENDBRANCH 121 130
BRANCH 124 134
ATOM    134   C  SGN B   7      13.899  10.669  35.5480  0.00  0.00     0.000 C
ATOM    135   O  SGN B   7      13.422   9.410  35.0440  0.00  0.00     0.000 O
ATOM    136   S  SGN B   7      12.607   9.457  33.7020  0.00  0.00     0.000 S
ATOM    137   O  SGN B   7      12.330   8.086  33.3460  0.00  0.00     0.000 OA
ATOM    138   O  SGN B   7      13.473  10.122  32.7560  0.00  0.00     0.000 OA
ATOM    139   O  SGN B   7      11.428  10.221  34.0790  0.00  0.00     0.000 OA
ENDBRANCH 124 134
BRANCH 120 140
ATOM    140  O4  IDS B   8      13.894   8.848  39.1100  0.00  0.00     0.000 O
BRANCH 140 144
ATOM    141  C1  IDS B   8      11.727  10.812  41.2110  0.00  0.00     0.000 C
ATOM    142  C2  IDS B   8      13.273  10.953  41.3030  0.00  0.00     0.000 C
ATOM    143  C3  IDS B   8      13.998   9.598  41.4070  0.00  0.00     0.000 C
ATOM    144  C4  IDS B   8      13.427   8.567  40.4360  0.00  0.00     0.000 C
ATOM    145  C5  IDS B   8      11.892   8.597  40.4730  0.00  0.00     0.000 C
ATOM    146  O5  IDS B   8      11.383   9.896  40.1780  0.00  0.00     0.000 O
BRANCH 142 147
ATOM    147   O  IDS B   8      13.782  11.631  40.0820  0.00  0.00     0.000 O
ATOM    148   S  IDS B   8      14.136  13.214  40.0900  0.00  0.00     0.000 S
ATOM    149   O  IDS B   8      13.514  13.796  41.2580  0.00  0.00     0.000 OA
ATOM    150   O  IDS B   8      15.585  13.287  40.1310  0.00  0.00     0.000 OA
ATOM    151   O  IDS B   8      13.574  13.738  38.8600  0.00  0.00     0.000 OA
ENDBRANCH 142 147
BRANCH 145 152
ATOM    152   C  IDS B   8      11.265   7.664  39.4570  0.00  0.00     0.000 C
ATOM    153   O  IDS B   8      11.363   6.451  39.6090  0.00  0.00     0.000 OA
ATOM    154   O  IDS B   8      10.653   8.127  38.5110  0.00  0.00     0.000 OA
ENDBRANCH 145 152
ENDBRANCH 140 144
ENDBRANCH 120 140
ENDBRANCH 119 123
ENDBRANCH 103 119
ENDBRANCH 102 106
ENDBRANCH 82 102
ENDBRANCH 81 85
ENDBRANCH 65 81
ENDBRANCH 64 68
ENDBRANCH 41 64
ENDBRANCH 40 44
ENDBRANCH 24 40
ENDBRANCH 23 27
ENDBRANCH 1 23
TORSDOF 31
ENDMDL
MODEL 80
REMARK VINA RESULT:      -6.7     12.151     16.144
ROOT
ATOM      1  C1  SGN B   1      38.766  15.301  31.3870  0.00  0.00     0.000 C
ATOM      2  C2  SGN B   1      39.096  16.320  30.2850  0.00  0.00     0.000 C
ATOM      3  C3  SGN B   1      37.923  16.465  29.3090  0.00  0.00     0.000 C
ATOM      4  C4  SGN B   1      37.547  15.103  28.7330  0.00  0.00     0.000 C
ATOM      5  C5  SGN B   1      37.373  14.108  29.8780  0.00  0.00     0.000 C
ATOM      6  O5  SGN B   1      38.569  14.083  30.6810  0.00  0.00     0.000 O
ATOM      7   O  SGN B   1      38.248  17.375  28.2660  0.00  0.00     0.000 O
ATOM      9  HD  SGN B   1      38.847  16.759  28.1550  0.00  0.00     0.000 HD
ATOM      9   O  SGN B   1      36.341  15.220  27.9990  0.00  0.00     0.000 O
ATOM     11  HD  SGN B   1      36.940  14.603  27.8890  0.00  0.00     0.000 HD
ENDROOT
BRANCH 2 13
ATOM     11   N  SGN B   1      40.459  16.742  30.6600  0.00  0.00     0.000 N
ATOM     13  HD  SGN B   1      39.812  16.783  31.2340  0.00  0.00     0.000 HD
ATOM     13   S  SGN B   1      40.733  17.858  31.7870  0.00  0.00     0.000 S
ATOM     14   O  SGN B   1      39.514  18.289  32.3510  0.00  0.00     0.000 OA
ATOM     15   O  SGN B   1      41.772  17.388  32.6410  0.00  0.00     0.000 OA
ATOM     16   O  SGN B   1      41.353  18.955  30.8680  0.00  0.00     0.000 OA
ENDBRANCH 2 13
BRANCH 5 17
ATOM     17   C  SGN B   1      37.105  12.693  29.4260  0.00  0.00     0.000 C
ATOM     18   O  SGN B   1      38.122  12.245  28.5070  0.00  0.00     0.000 O
ATOM     19   S  SGN B   1      37.601  11.485  27.2010  0.00  0.00     0.000 S
ATOM     20   O  SGN B   1      38.792  10.944  26.5810  0.00  0.00     0.000 OA
ATOM     21   O  SGN B   1      36.706  10.475  27.7140  0.00  0.00     0.000 OA
ATOM     22   O  SGN B   1      36.946  12.503  26.4080  0.00  0.00     0.000 OA
ENDBRANCH 5 17
BRANCH 1 23
ATOM     23  O4  IDS B   2      38.207  15.236  32.6290  0.00  0.00     0.000 O
BRANCH 23 27
ATOM     24  C1  IDS B   2      34.209  15.707  33.6380  0.00  0.00     0.000 C
ATOM     25  C2  IDS B   2      34.884  16.939  32.9960  0.00  0.00     0.000 C
ATOM     26  C3  IDS B   2      36.240  16.569  32.4000  0.00  0.00     0.000 C
ATOM     27  C4  IDS B   2      37.178  15.897  33.3930  0.00  0.00     0.000 C
ATOM     28  C5  IDS B   2      36.378  14.966  34.3260  0.00  0.00     0.000 C
ATOM     29  O5  IDS B   2      35.131  14.614  33.7450  0.00  0.00     0.000 O
ATOM     30   O  IDS B   2      36.883  17.749  31.9310  0.00  0.00     0.000 O
ATOM     32  HD  IDS B   2      37.253  18.210  32.5640  0.00  0.00     0.000 HD
BRANCH 25 32
ATOM     32   O  IDS B   2      34.062  17.527  31.9100  0.00  0.00     0.000 O
ATOM     33   S  IDS B   2      33.598  19.111  31.9290  0.00  0.00     0.000 S
ATOM     34   O  IDS B   2      32.637  19.264  30.8480  0.00  0.00     0.000 OA
ATOM     35   O  IDS B   2      33.001  19.425  33.2200  0.00  0.00     0.000 OA
ATOM     36   O  IDS B   2      34.799  19.873  31.6770  0.00  0.00     0.000 OA
ENDBRANCH 25 32
BRANCH 28 37
ATOM     37   C  IDS B   2      37.065  13.675  34.8170  0.00  0.00     0.000 C
ATOM     38   O  IDS B   2      36.764  12.706  34.1600  0.00  0.00     0.000 OA
ATOM     39   O  IDS B   2      37.906  13.572  35.7430  0.00  0.00     0.000 OA
ENDBRANCH 28 37
BRANCH 24 40
ATOM     40  O4  SUS B   3      33.030  15.845  34.2800  0.00  0.00     0.000 O
BRANCH 40 44
ATOM     41  C1  SUS B   3      29.965  13.069  34.9500  0.00  0.00     0.000 C
ATOM     42  C2  SUS B   3      31.317  12.807  35.6420  0.00  0.00     0.000 C
ATOM     43  C3  SUS B   3      32.118  14.106  35.6890  0.00  0.00     0.000 C
ATOM     44  C4  SUS B   3      32.243  14.658  34.2780  0.00  0.00     0.000 C
ATOM     45  C5  SUS B   3      30.858  14.959  33.7450  0.00  0.00     0.000 C
ATOM     46  O5  SUS B   3      30.120  13.722  33.6850  0.00  0.00     0.000 O
BRANCH 42 49
ATOM     47   N  SUS B   3      30.932  11.385  35.6840  0.00  0.00     0.000 N
ATOM     49  HD  SUS B   3      30.086  11.212  35.6180  0.00  0.00     0.000 HD
ATOM     49   S  SUS B   3      31.495  10.631  36.9800  0.00  0.00     0.000 S
ATOM     50   O  SUS B   3      31.042  11.279  38.1470  0.00  0.00     0.000 OA
ATOM     51   O  SUS B   3      30.728   9.302  36.7610  0.00  0.00     0.000 OA
ATOM     52   O  SUS B   3      32.883  10.434  36.8400  0.00  0.00     0.000 OA
ENDBRANCH 42 49
BRANCH 43 53
ATOM     53   O  SUS B   3      33.457  13.795  36.2270  0.00  0.00     0.000 O
ATOM     54   S  SUS B   3      33.863  14.475  37.6680  0.00  0.00     0.000 S
ATOM     55   O  SUS B   3      33.073  13.816  38.6990  0.00  0.00     0.000 OA
ATOM     56   O  SUS B   3      35.290  14.236  37.7800  0.00  0.00     0.000 OA
ATOM     57   O  SUS B   3      33.522  15.897  37.5660  0.00  0.00     0.000 OA
ENDBRANCH 43 53
BRANCH 45 58
ATOM     58   C  SUS B   3      30.905  15.607  32.3790  0.00  0.00     0.000 C
ATOM     59   S  SUS B   3      29.453  16.142  30.3310  0.00  0.00     0.000 S
ATOM     60   O  SUS B   3      29.573  15.689  31.8440  0.00  0.00     0.000 O
ATOM     61   O  SUS B   3      29.799  14.967  29.5550  0.00  0.00     0.000 OA
ATOM     62   O  SUS B   3      28.053  16.464  30.2590  0.00  0.00     0.000 OA
ATOM     63   O  SUS B   3      30.338  17.244  30.1930  0.00  0.00     0.000 OA
ENDBRANCH 45 58
BRANCH 41 64
ATOM     64  O4  IDS B   4      29.026  13.647  35.7690  0.00  0.00     0.000 O
BRANCH 64 68
ATOM     65  C1  IDS B   4      25.617  13.627  37.0540  0.00  0.00     0.000 C
ATOM     66  C2  IDS B   4      26.215  12.359  36.4310  0.00  0.00     0.000 C
ATOM     67  C3  IDS B   4      26.935  12.587  35.1120  0.00  0.00     0.000 C
ATOM     68  C4  IDS B   4      27.761  13.859  35.1040  0.00  0.00     0.000 C
ATOM     69  C5  IDS B   4      26.921  14.979  35.7330  0.00  0.00     0.000 C
ATOM     70  O5  IDS B   4      26.613  14.633  37.0860  0.00  0.00     0.000 O
ATOM     71   O  IDS B   4      25.949  12.652  34.1020  0.00  0.00     0.000 O
ATOM     73  HD  IDS B   4      26.261  12.459  34.8870  0.00  0.00     0.000 HD
BRANCH 66 73
ATOM     73   O  IDS B   4      27.232  11.818  37.3430  0.00  0.00     0.000 O
ATOM     74   S  IDS B   4      27.015  10.321  37.9180  0.00  0.00     0.000 S
ATOM     75   O  IDS B   4      25.723  10.317  38.5710  0.00  0.00     0.000 OA
ATOM     76   O  IDS B   4      28.130  10.186  38.8210  0.00  0.00     0.000 OA
ATOM     77   O  IDS B   4      27.075   9.453  36.7660  0.00  0.00     0.000 OA
ENDBRANCH 66 73
BRANCH 69 78
ATOM     78   C  IDS B   4      27.526  16.370  35.6000  0.00  0.00     0.000 C
ATOM     79   O  IDS B   4      28.691  16.544  35.9530  0.00  0.00     0.000 OA
ATOM     80   O  IDS B   4      26.857  17.259  35.0420  0.00  0.00     0.000 OA
ENDBRANCH 69 78
BRANCH 65 81
ATOM     81  O4  SGN B   5      24.452  13.937  36.4210  0.00  0.00     0.000 O
BRANCH 81 85
ATOM     82  C1  SGN B   5      20.646  15.557  37.1460  0.00  0.00     0.000 C
ATOM     83  C2  SGN B   5      21.695  16.491  36.5240  0.00  0.00     0.000 C
ATOM     84  C3  SGN B   5      22.826  15.655  35.9100  0.00  0.00     0.000 C
ATOM     85  C4  SGN B   5      23.401  14.735  36.9720  0.00  0.00     0.000 C
ATOM     86  C5  SGN B   5      22.277  13.845  37.4950  0.00  0.00     0.000 C
ATOM     87  O5  SGN B   5      21.258  14.682  38.0740  0.00  0.00     0.000 O
ATOM     88   O  SGN B   5      23.822  16.507  35.3860  0.00  0.00     0.000 O
ATOM     90  HD  SGN B   5      23.218  16.095  34.9210  0.00  0.00     0.000 HD
BRANCH 83 92
ATOM     90   N  SGN B   5      20.732  17.299  35.7490  0.00  0.00     0.000 N
ATOM     92  HD  SGN B   5      19.970  16.893  35.6810  0.00  0.00     0.000 HD
ATOM     92   S  SGN B   5      20.639  18.863  36.0640  0.00  0.00     0.000 S
ATOM     93   O  SGN B   5      19.632  19.346  35.1690  0.00  0.00     0.000 OA
ATOM     94   O  SGN B   5      20.450  18.963  37.4710  0.00  0.00     0.000 OA
ATOM     95   O  SGN B   5      22.020  19.400  35.7550  0.00  0.00     0.000 OA
ENDBRANCH 83 92
BRANCH 86 96
ATOM     96   C  SGN B   5      22.710  12.859  38.5600  0.00  0.00     0.000 C
ATOM     97   O  SGN B   5      22.648  13.460  39.8560  0.00  0.00     0.000 O
ATOM     98   S  SGN B   5      21.855  12.636  40.9790  0.00  0.00     0.000 S
ATOM     99   O  SGN B   5      22.141  13.380  42.1820  0.00  0.00     0.000 OA
ATOM    100   O  SGN B   5      20.486  12.617  40.6070  0.00  0.00     0.000 OA
ATOM    101   O  SGN B   5      22.454  11.341  40.9590  0.00  0.00     0.000 OA
ENDBRANCH 86 96
BRANCH 82 102
ATOM    102  O4  IDS B   6      19.953  14.849  36.2100  0.00  0.00     0.000 O
BRANCH 102 106
ATOM    103  C1  IDS B   6      16.869  13.799  34.5850  0.00  0.00     0.000 C
ATOM    104  C2  IDS B   6      17.035  15.236  35.1010  0.00  0.00     0.000 C
ATOM    105  C3  IDS B   6      17.590  15.354  36.5080  0.00  0.00     0.000 C
ATOM    106  C4  IDS B   6      18.710  14.367  36.7810  0.00  0.00     0.000 C
ATOM    107  C5  IDS B   6      18.342  12.996  36.2060  0.00  0.00     0.000 C
ATOM    108  O5  IDS B   6      18.057  13.063  34.8080  0.00  0.00     0.000 O
ATOM    109   O  IDS B   6      16.521  15.169  37.4210  0.00  0.00     0.000 O
ATOM    111  HD  IDS B   6      15.934  14.722  36.9670  0.00  0.00     0.000 HD
BRANCH 104 111
ATOM    111   O  IDS B   6      17.997  15.945  34.2440  0.00  0.00     0.000 O
ATOM    112   S  IDS B   6      17.440  17.091  33.2750  0.00  0.00     0.000 S
ATOM    113   O  IDS B   6      16.460  16.418  32.4370  0.00  0.00     0.000 OA
ATOM    114   O  IDS B   6      16.898  18.176  34.1020  0.00  0.00     0.000 OA
ATOM    115   O  IDS B   6      18.666  17.432  32.5860  0.00  0.00     0.000 OA
ENDBRANCH 104 111
BRANCH 107 116
ATOM    116   C  IDS B   6      19.488  12.022  36.4540  0.00  0.00     0.000 C
ATOM    117   O  IDS B   6      20.218  11.797  35.5220  0.00  0.00     0.000 OA
ATOM    118   O  IDS B   6      19.646  11.491  37.5420  0.00  0.00     0.000 OA
ENDBRANCH 107 116
BRANCH 103 119
ATOM    119  O4  SGN B   7      15.683  13.402  35.1140  0.00  0.00     0.000 O
BRANCH 119 123
ATOM    120  C1  SGN B   7      12.749  10.565  34.2020  0.00  0.00     0.000 C
ATOM    121  C2  SGN B   7      14.041  10.064  34.8740  0.00  0.00     0.000 C
ATOM    122  C3  SGN B   7      14.813  11.235  35.4970  0.00  0.00     0.000 C
ATOM    123  C4  SGN B   7      15.041  12.313  34.4500  0.00  0.00     0.000 C
ATOM    124  C5  SGN B   7      13.697  12.739  33.8360  0.00  0.00     0.000 C
ATOM    125  O5  SGN B   7      13.007  11.607  33.2620  0.00  0.00     0.000 O
ATOM    126   O  SGN B   7      16.052  10.749  36.0240  0.00  0.00     0.000 O
ATOM    128  HD  SGN B   7      15.274  10.569  35.6890  0.00  0.00     0.000 HD
BRANCH 121 130
ATOM    128   N  SGN B   7      13.279   8.814  34.9190  0.00  0.00     0.000 N
ATOM    130  HD  SGN B   7      13.792   8.471  34.3110  0.00  0.00     0.000 HD
ATOM    130   S  SGN B   7      13.866   7.473  35.5910  0.00  0.00     0.000 S
ATOM    131   O  SGN B   7      14.329   7.872  36.8760  0.00  0.00     0.000 OA
ATOM    132   O  SGN B   7      12.894   6.448  35.4650  0.00  0.00     0.000 OA
ATOM    133   O  SGN B   7      14.973   7.098  34.5480  0.00  0.00     0.000 OA
ENDBRANCH 121 130
BRANCH 124 134
ATOM    134   C  SGN B   7      13.829  13.720  32.7080  0.00  0.00     0.000 C
ATOM    135   O  SGN B   7      13.781  12.998  31.4660  0.00  0.00     0.000 O
ATOM    136   S  SGN B   7      13.749  13.862  30.1550  0.00  0.00     0.000 S
ATOM    137   O  SGN B   7      13.809  12.931  29.0530  0.00  0.00     0.000 OA
ATOM    138   O  SGN B   7      14.912  14.716  30.2360  0.00  0.00     0.000 OA
ATOM    139   O  SGN B   7      12.478  14.561  30.2720  0.00  0.00     0.000 OA
ENDBRANCH 124 134
BRANCH 120 140
ATOM    140  O4  IDS B   8      11.661  11.078  34.7890  0.00  0.00     0.000 O
BRANCH 140 144
ATOM    141  C1  IDS B   8       9.805  13.022  37.1830  0.00  0.00     0.000 C
ATOM    142  C2  IDS B   8      11.104  12.273  37.5960  0.00  0.00     0.000 C
ATOM    143  C3  IDS B   8      11.128  10.805  37.1320  0.00  0.00     0.000 C
ATOM    144  C4  IDS B   8      10.636  10.651  35.6940  0.00  0.00     0.000 C
ATOM    145  C5  IDS B   8       9.362  11.483  35.4780  0.00  0.00     0.000 C
ATOM    146  O5  IDS B   8       9.572  12.858  35.7900  0.00  0.00     0.000 O
BRANCH 142 147
ATOM    147   O  IDS B   8      12.280  12.947  36.9850  0.00  0.00     0.000 O
ATOM    148   S  IDS B   8      13.179  13.994  37.8370  0.00  0.00     0.000 S
ATOM    149   O  IDS B   8      12.415  14.382  39.0010  0.00  0.00     0.000 OA
ATOM    150   O  IDS B   8      14.394  13.276  38.1760  0.00  0.00     0.000 OA
ATOM    151   O  IDS B   8      13.411  15.113  36.9440  0.00  0.00     0.000 OA
ENDBRANCH 142 147
BRANCH 145 152
ATOM    152   C  IDS B   8       8.880  11.450  34.0410  0.00  0.00     0.000 C
ATOM    153   O  IDS B   8       8.687  12.503  33.4450  0.00  0.00     0.000 OA
ATOM    154   O  IDS B   8       8.711  10.378  33.4880  0.00  0.00     0.000 OA
ENDBRANCH 145 152
ENDBRANCH 140 144
ENDBRANCH 120 140
ENDBRANCH 119 123
ENDBRANCH 103 119
ENDBRANCH 102 106
ENDBRANCH 82 102
ENDBRANCH 81 85
ENDBRANCH 65 81
ENDBRANCH 64 68
ENDBRANCH 41 64
ENDBRANCH 40 44
ENDBRANCH 24 40
ENDBRANCH 23 27
ENDBRANCH 1 23
TORSDOF 31
ENDMDL
MODEL 81
REMARK VINA RESULT:      -6.7      8.597     18.053
ROOT
ATOM      1  C1  SGN B   1      32.328  15.442  34.0810  0.00  0.00     0.000 C
ATOM      2  C2  SGN B   1      32.153  15.772  35.5730  0.00  0.00     0.000 C
ATOM      3  C3  SGN B   1      33.195  16.799  36.0270  0.00  0.00     0.000 C
ATOM      4  C4  SGN B   1      34.601  16.296  35.7160  0.00  0.00     0.000 C
ATOM      5  C5  SGN B   1      34.660  15.854  34.2550  0.00  0.00     0.000 C
ATOM      6  O5  SGN B   1      33.630  14.878  34.0050  0.00  0.00     0.000 O
ATOM      7   O  SGN B   1      33.059  17.069  37.4170  0.00  0.00     0.000 O
ATOM      9  HD  SGN B   1      33.237  16.222  37.4190  0.00  0.00     0.000 HD
ATOM      9   O  SGN B   1      35.535  17.333  35.9510  0.00  0.00     0.000 O
ATOM     11  HD  SGN B   1      35.714  16.486  35.9520  0.00  0.00     0.000 HD
ENDROOT
BRANCH 2 13
ATOM     11   N  SGN B   1      31.003  14.917  35.9230  0.00  0.00     0.000 N
ATOM     13  HD  SGN B   1      30.948  15.481  35.2680  0.00  0.00     0.000 HD
ATOM     13   S  SGN B   1      29.482  15.367  35.6520  0.00  0.00     0.000 S
ATOM     14   O  SGN B   1      29.455  16.623  35.0100  0.00  0.00     0.000 OA
ATOM     15   O  SGN B   1      28.784  14.269  35.0720  0.00  0.00     0.000 OA
ATOM     16   O  SGN B   1      29.015  15.477  37.1360  0.00  0.00     0.000 OA
ENDBRANCH 2 13
BRANCH 5 17
ATOM     17   C  SGN B   1      35.975  15.232  33.8550  0.00  0.00     0.000 C
ATOM     18   O  SGN B   1      36.183  15.338  32.4330  0.00  0.00     0.000 O
ATOM     19   S  SGN B   1      36.708  14.018  31.6990  0.00  0.00     0.000 S
ATOM     20   O  SGN B   1      37.056  14.445  30.3610  0.00  0.00     0.000 OA
ATOM     21   O  SGN B   1      37.846  13.605  32.4880  0.00  0.00     0.000 OA
ATOM     22   O  SGN B   1      35.596  13.094  31.7430  0.00  0.00     0.000 OA
ENDBRANCH 5 17
BRANCH 1 23
ATOM     23  O4  IDS B   2      31.908  15.860  32.8530  0.00  0.00     0.000 O
BRANCH 23 27
ATOM     24  C1  IDS B   2      30.883  18.060  29.4850  0.00  0.00     0.000 C
ATOM     25  C2  IDS B   2      31.834  18.765  30.4790  0.00  0.00     0.000 C
ATOM     26  C3  IDS B   2      32.376  17.778  31.5090  0.00  0.00     0.000 C
ATOM     27  C4  IDS B   2      31.287  17.016  32.2530  0.00  0.00     0.000 C
ATOM     28  C5  IDS B   2      30.124  16.690  31.2950  0.00  0.00     0.000 C
ATOM     29  O5  IDS B   2      30.551  16.742  29.9420  0.00  0.00     0.000 O
ATOM     30   O  IDS B   2      33.143  18.485  32.4760  0.00  0.00     0.000 O
ATOM     32  HD  IDS B   2      32.658  18.885  33.0710  0.00  0.00     0.000 HD
BRANCH 25 32
ATOM     32   O  IDS B   2      32.996  19.387  29.7980  0.00  0.00     0.000 O
ATOM     33   S  IDS B   2      33.319  21.000  29.9260  0.00  0.00     0.000 S
ATOM     34   O  IDS B   2      34.374  21.279  28.9640  0.00  0.00     0.000 OA
ATOM     35   O  IDS B   2      32.114  21.760  29.6290  0.00  0.00     0.000 OA
ATOM     36   O  IDS B   2      33.777  21.200  31.2810  0.00  0.00     0.000 OA
ENDBRANCH 25 32
BRANCH 28 37
ATOM     37   C  IDS B   2      29.361  15.367  31.5120  0.00  0.00     0.000 C
ATOM     38   O  IDS B   2      28.287  15.528  32.0410  0.00  0.00     0.000 OA
ATOM     39   O  IDS B   2      29.718  14.220  31.1470  0.00  0.00     0.000 OA
ENDBRANCH 28 37
BRANCH 24 40
ATOM     40  O4  SUS B   3      30.248  18.779  28.5370  0.00  0.00     0.000 O
BRANCH 40 44
ATOM     41  C1  SUS B   3      28.851  17.647  24.7540  0.00  0.00     0.000 C
ATOM     42  C2  SUS B   3      28.087  17.105  25.9780  0.00  0.00     0.000 C
ATOM     43  C3  SUS B   3      28.408  17.971  27.1950  0.00  0.00     0.000 C
ATOM     44  C4  SUS B   3      29.916  18.020  27.3800  0.00  0.00     0.000 C
ATOM     45  C5  SUS B   3      30.540  18.653  26.1530  0.00  0.00     0.000 C
ATOM     46  O5  SUS B   3      30.249  17.815  25.0160  0.00  0.00     0.000 O
BRANCH 42 49
ATOM     47   N  SUS B   3      26.637  16.995  25.7450  0.00  0.00     0.000 N
ATOM     49  HD  SUS B   3      26.120  17.336  26.3500  0.00  0.00     0.000 HD
ATOM     49   S  SUS B   3      26.167  15.486  25.4830  0.00  0.00     0.000 S
ATOM     50   O  SUS B   3      26.534  14.673  26.5740  0.00  0.00     0.000 OA
ATOM     51   O  SUS B   3      24.642  15.767  25.5000  0.00  0.00     0.000 OA
ATOM     52   O  SUS B   3      26.584  15.083  24.1990  0.00  0.00     0.000 OA
ENDBRANCH 42 49
BRANCH 43 53
ATOM     53   O  SUS B   3      27.777  17.348  28.3750  0.00  0.00     0.000 O
ATOM     54   S  SUS B   3      26.565  18.184  29.1060  0.00  0.00     0.000 S
ATOM     55   O  SUS B   3      25.412  18.147  28.2180  0.00  0.00     0.000 OA
ATOM     56   O  SUS B   3      26.362  17.483  30.3610  0.00  0.00     0.000 OA
ATOM     57   O  SUS B   3      27.055  19.555  29.2830  0.00  0.00     0.000 OA
ENDBRANCH 43 53
BRANCH 45 58
ATOM     58   C  SUS B   3      32.035  18.829  26.3040  0.00  0.00     0.000 C
ATOM     59   S  SUS B   3      34.191  19.153  24.9500  0.00  0.00     0.000 S
ATOM     60   O  SUS B   3      32.609  19.147  25.0250  0.00  0.00     0.000 O
ATOM     61   O  SUS B   3      34.573  17.755  24.8840  0.00  0.00     0.000 OA
ATOM     62   O  SUS B   3      34.397  19.845  23.7060  0.00  0.00     0.000 OA
ATOM     63   O  SUS B   3      34.624  19.847  26.1110  0.00  0.00     0.000 OA
ENDBRANCH 45 58
BRANCH 41 64
ATOM     64  O4  IDS B   4      28.255  18.736  24.1670  0.00  0.00     0.000 O
BRANCH 64 68
ATOM     65  C1  IDS B   4      26.149  20.382  21.6900  0.00  0.00     0.000 C
ATOM     66  C2  IDS B   4      25.798  18.975  22.1900  0.00  0.00     0.000 C
ATOM     67  C3  IDS B   4      26.973  18.011  22.2280  0.00  0.00     0.000 C
ATOM     68  C4  IDS B   4      28.251  18.660  22.7240  0.00  0.00     0.000 C
ATOM     69  C5  IDS B   4      28.391  20.026  22.0390  0.00  0.00     0.000 C
ATOM     70  O5  IDS B   4      27.280  20.850  22.4020  0.00  0.00     0.000 O
ATOM     71   O  IDS B   4      27.161  17.527  20.9140  0.00  0.00     0.000 O
ATOM     73  HD  IDS B   4      26.724  17.906  21.5590  0.00  0.00     0.000 HD
BRANCH 66 73
ATOM     73   O  IDS B   4      25.325  19.070  23.5770  0.00  0.00     0.000 O
ATOM     74   S  IDS B   4      23.731  18.992  23.8420  0.00  0.00     0.000 S
ATOM     75   O  IDS B   4      23.132  20.046  23.0500  0.00  0.00     0.000 OA
ATOM     76   O  IDS B   4      23.655  19.211  25.2640  0.00  0.00     0.000 OA
ATOM     77   O  IDS B   4      23.335  17.669  23.4230  0.00  0.00     0.000 OA
ENDBRANCH 66 73
BRANCH 69 78
ATOM     78   C  IDS B   4      29.733  20.708  22.2630  0.00  0.00     0.000 C
ATOM     79   O  IDS B   4      29.756  21.927  22.4320  0.00  0.00     0.000 OA
ATOM     80   O  IDS B   4      30.751  20.000  22.3740  0.00  0.00     0.000 OA
ENDBRANCH 69 78
BRANCH 65 81
ATOM     81  O4  SGN B   5      26.241  20.370  20.3310  0.00  0.00     0.000 O
BRANCH 81 85
ATOM     82  C1  SGN B   5      25.317  22.614  16.9040  0.00  0.00     0.000 C
ATOM     83  C2  SGN B   5      26.693  22.851  17.5430  0.00  0.00     0.000 C
ATOM     84  C3  SGN B   5      27.047  21.668  18.4550  0.00  0.00     0.000 C
ATOM     85  C4  SGN B   5      25.940  21.475  19.4760  0.00  0.00     0.000 C
ATOM     86  C5  SGN B   5      24.634  21.225  18.7250  0.00  0.00     0.000 C
ATOM     87  O5  SGN B   5      24.346  22.373  17.9040  0.00  0.00     0.000 O
ATOM     88   O  SGN B   5      28.284  21.905  19.0900  0.00  0.00     0.000 O
ATOM     90  HD  SGN B   5      28.161  21.387  18.4070  0.00  0.00     0.000 HD
BRANCH 83 92
ATOM     90   N  SGN B   5      27.267  23.234  16.2380  0.00  0.00     0.000 N
ATOM     92  HD  SGN B   5      26.706  23.084  15.5960  0.00  0.00     0.000 HD
ATOM     92   S  SGN B   5      28.051  24.623  16.1410  0.00  0.00     0.000 S
ATOM     93   O  SGN B   5      28.468  24.700  14.7730  0.00  0.00     0.000 OA
ATOM     94   O  SGN B   5      27.168  25.603  16.6730  0.00  0.00     0.000 OA
ATOM     95   O  SGN B   5      29.205  24.482  17.1090  0.00  0.00     0.000 OA
ENDBRANCH 83 92
BRANCH 86 96
ATOM     96   C  SGN B   5      23.435  21.001  19.6240  0.00  0.00     0.000 C
ATOM     97   O  SGN B   5      23.068  22.215  20.2840  0.00  0.00     0.000 O
ATOM     98   S  SGN B   5      21.524  22.635  20.1820  0.00  0.00     0.000 S
ATOM     99   O  SGN B   5      21.437  23.751  21.0930  0.00  0.00     0.000 OA
ATOM    100   O  SGN B   5      21.258  22.955  18.8260  0.00  0.00     0.000 OA
ATOM    101   O  SGN B   5      20.812  21.482  20.6310  0.00  0.00     0.000 OA
ENDBRANCH 86 96
BRANCH 82 102
ATOM    102  O4  IDS B   6      25.328  21.595  15.9980  0.00  0.00     0.000 O
BRANCH 102 106
ATOM    103  C1  IDS B   6      24.950  19.996  12.7490  0.00  0.00     0.000 C
ATOM    104  C2  IDS B   6      25.853  21.228  12.9180  0.00  0.00     0.000 C
ATOM    105  C3  IDS B   6      25.235  22.376  13.6930  0.00  0.00     0.000 C
ATOM    106  C4  IDS B   6      24.437  21.908  14.8970  0.00  0.00     0.000 C
ATOM    107  C5  IDS B   6      23.593  20.688  14.5160  0.00  0.00     0.000 C
ATOM    108  O5  IDS B   6      24.395  19.627  13.9970  0.00  0.00     0.000 O
ATOM    109   O  IDS B   6      24.417  23.119  12.8040  0.00  0.00     0.000 O
ATOM    111  HD  IDS B   6      24.226  22.555  12.1760  0.00  0.00     0.000 HD
BRANCH 104 111
ATOM    111   O  IDS B   6      27.050  20.844  13.6810  0.00  0.00     0.000 O
ATOM    112   S  IDS B   6      28.464  20.875  12.9310  0.00  0.00     0.000 S
ATOM    113   O  IDS B   6      28.302  19.966  11.8070  0.00  0.00     0.000 OA
ATOM    114   O  IDS B   6      28.761  22.263  12.5580  0.00  0.00     0.000 OA
ATOM    115   O  IDS B   6      29.302  20.357  13.9900  0.00  0.00     0.000 OA
ENDBRANCH 104 111
BRANCH 107 116
ATOM    116   C  IDS B   6      22.824  20.205  15.7390  0.00  0.00     0.000 C
ATOM    117   O  IDS B   6      23.220  19.195  16.2640  0.00  0.00     0.000 OA
ATOM    118   O  IDS B   6      21.850  20.810  16.1570  0.00  0.00     0.000 OA
ENDBRANCH 107 116
BRANCH 103 119
ATOM    119  O4  SGN B   7      24.161  20.319  11.6920  0.00  0.00     0.000 O
BRANCH 119 123
ATOM    120  C1  SGN B   7      21.949  18.104   8.9190  0.00  0.00     0.000 C
ATOM    121  C2  SGN B   7      21.177  18.790  10.0610  0.00  0.00     0.000 C
ATOM    122  C3  SGN B   7      22.047  19.863  10.7300  0.00  0.00     0.000 C
ATOM    123  C4  SGN B   7      23.372  19.254  11.1600  0.00  0.00     0.000 C
ATOM    124  C5  SGN B   7      24.058  18.591   9.9550  0.00  0.00     0.000 C
ATOM    125  O5  SGN B   7      23.205  17.589   9.3580  0.00  0.00     0.000 O
ATOM    126   O  SGN B   7      21.337  20.409  11.8470  0.00  0.00     0.000 O
ATOM    128  HD  SGN B   7      21.323  19.912  11.1380  0.00  0.00     0.000 HD
BRANCH 121 130
ATOM    128   N  SGN B   7      19.993  18.001   9.7140  0.00  0.00     0.000 N
ATOM    130  HD  SGN B   7      19.750  17.986  10.5450  0.00  0.00     0.000 HD
ATOM    130   S  SGN B   7      18.510  18.630   9.7160  0.00  0.00     0.000 S
ATOM    131   O  SGN B   7      18.611  19.823   8.9480  0.00  0.00     0.000 OA
ATOM    132   O  SGN B   7      17.594  17.612   9.3450  0.00  0.00     0.000 OA
ATOM    133   O  SGN B   7      18.288  18.820  11.2550  0.00  0.00     0.000 OA
ENDBRANCH 121 130
BRANCH 124 134
ATOM    134   C  SGN B   7      25.322  17.860  10.3020  0.00  0.00     0.000 C
ATOM    135   O  SGN B   7      25.021  16.880  11.3110  0.00  0.00     0.000 O
ATOM    136   S  SGN B   7      26.185  15.901  11.7030  0.00  0.00     0.000 S
ATOM    137   O  SGN B   7      25.686  15.092  12.7900  0.00  0.00     0.000 OA
ATOM    138   O  SGN B   7      27.283  16.755  12.0940  0.00  0.00     0.000 OA
ATOM    139   O  SGN B   7      26.404  15.164  10.4680  0.00  0.00     0.000 OA
ENDBRANCH 124 134
BRANCH 120 140
ATOM    140  O4  IDS B   8      22.337  18.634   7.7530  0.00  0.00     0.000 O
BRANCH 140 144
ATOM    141  C1  IDS B   8      23.694  21.149   5.5640  0.00  0.00     0.000 C
ATOM    142  C2  IDS B   8      22.823  21.543   6.7910  0.00  0.00     0.000 C
ATOM    143  C3  IDS B   8      21.514  20.736   6.8850  0.00  0.00     0.000 C
ATOM    144  C4  IDS B   8      21.736  19.250   6.6080  0.00  0.00     0.000 C
ATOM    145  C5  IDS B   8      22.637  19.070   5.3770  0.00  0.00     0.000 C
ATOM    146  O5  IDS B   8      23.885  19.740   5.5350  0.00  0.00     0.000 O
BRANCH 142 147
ATOM    147   O  IDS B   8      23.586  21.291   8.0420  0.00  0.00     0.000 O
ATOM    148   S  IDS B   8      24.423  22.478   8.7630  0.00  0.00     0.000 S
ATOM    149   O  IDS B   8      24.581  23.548   7.8040  0.00  0.00     0.000 OA
ATOM    150   O  IDS B   8      23.631  22.867   9.9140  0.00  0.00     0.000 OA
ATOM    151   O  IDS B   8      25.696  21.882   9.1230  0.00  0.00     0.000 OA
ENDBRANCH 142 147
BRANCH 145 152
ATOM    152   C  IDS B   8      22.975  17.617   5.1090  0.00  0.00     0.000 C
ATOM    153   O  IDS B   8      24.130  17.230   5.2470  0.00  0.00     0.000 OA
ATOM    154   O  IDS B   8      22.093  16.845   4.7790  0.00  0.00     0.000 OA
ENDBRANCH 145 152
ENDBRANCH 140 144
ENDBRANCH 120 140
ENDBRANCH 119 123
ENDBRANCH 103 119
ENDBRANCH 102 106
ENDBRANCH 82 102
ENDBRANCH 81 85
ENDBRANCH 65 81
ENDBRANCH 64 68
ENDBRANCH 41 64
ENDBRANCH 40 44
ENDBRANCH 24 40
ENDBRANCH 23 27
ENDBRANCH 1 23
TORSDOF 31
ENDMDL
MODEL 82
REMARK VINA RESULT:      -6.7     10.990     15.590
ROOT
ATOM      1  C1  SGN B   1       7.065  16.905  12.7600  0.00  0.00     0.000 C
ATOM      2  C2  SGN B   1       5.919  17.485  11.9150  0.00  0.00     0.000 C
ATOM      3  C3  SGN B   1       4.562  16.988  12.4260  0.00  0.00     0.000 C
ATOM      4  C4  SGN B   1       4.536  15.463  12.4530  0.00  0.00     0.000 C
ATOM      5  C5  SGN B   1       5.776  14.956  13.1860  0.00  0.00     0.000 C
ATOM      6  O5  SGN B   1       6.958  15.501  12.5670  0.00  0.00     0.000 O
ATOM      7   O  SGN B   1       3.507  17.490  11.6140  0.00  0.00     0.000 O
ATOM      9  HD  SGN B   1       3.965  17.028  11.0420  0.00  0.00     0.000 HD
ATOM      9   O  SGN B   1       3.364  15.024  13.1150  0.00  0.00     0.000 O
ATOM     11  HD  SGN B   1       3.821  14.562  12.5430  0.00  0.00     0.000 HD
ENDROOT
BRANCH 2 13
ATOM     11   N  SGN B   1       6.703  18.288  10.9570  0.00  0.00     0.000 N
ATOM     13  HD  SGN B   1       6.771  18.428  11.8090  0.00  0.00     0.000 HD
ATOM     13   S  SGN B   1       7.164  19.796  11.2760  0.00  0.00     0.000 S
ATOM     14   O  SGN B   1       6.756  20.164  12.5750  0.00  0.00     0.000 OA
ATOM     15   O  SGN B   1       8.533  19.935  10.9070  0.00  0.00     0.000 OA
ATOM     16   O  SGN B   1       6.317  20.523  10.1870  0.00  0.00     0.000 OA
ENDBRANCH 2 13
BRANCH 5 17
ATOM     17   C  SGN B   1       5.920  13.454  13.1830  0.00  0.00     0.000 C
ATOM     18   O  SGN B   1       5.791  12.927  11.8480  0.00  0.00     0.000 O
ATOM     19   S  SGN B   1       4.860  11.636  11.6900  0.00  0.00     0.000 S
ATOM     20   O  SGN B   1       5.084  11.176  10.3360  0.00  0.00     0.000 OA
ATOM     21   O  SGN B   1       5.347  10.725  12.6990  0.00  0.00     0.000 OA
ATOM     22   O  SGN B   1       3.514  12.111  11.9260  0.00  0.00     0.000 OA
ENDBRANCH 5 17
BRANCH 1 23
ATOM     23  O4  IDS B   2       7.799  17.186  13.8740  0.00  0.00     0.000 O
BRANCH 23 27
ATOM     24  C1  IDS B   2       8.836  18.185  17.7680  0.00  0.00     0.000 C
ATOM     25  C2  IDS B   2       7.321  18.116  17.4780  0.00  0.00     0.000 C
ATOM     26  C3  IDS B   2       7.052  17.461  16.1260  0.00  0.00     0.000 C
ATOM     27  C4  IDS B   2       7.792  18.123  14.9720  0.00  0.00     0.000 C
ATOM     28  C5  IDS B   2       9.192  18.575  15.4330  0.00  0.00     0.000 C
ATOM     29  O5  IDS B   2       9.597  17.866  16.5950  0.00  0.00     0.000 O
ATOM     30   O  IDS B   2       5.660  17.529  15.8400  0.00  0.00     0.000 O
ATOM     32  HD  IDS B   2       5.409  18.305  15.5480  0.00  0.00     0.000 HD
BRANCH 25 32
ATOM     32   O  IDS B   2       6.587  17.339  18.5070  0.00  0.00     0.000 O
ATOM     33   S  IDS B   2       5.399  18.019  19.4300  0.00  0.00     0.000 S
ATOM     34   O  IDS B   2       5.077  17.042  20.4580  0.00  0.00     0.000 OA
ATOM     35   O  IDS B   2       5.889  19.260  20.0110  0.00  0.00     0.000 OA
ATOM     36   O  IDS B   2       4.284  18.231  18.5370  0.00  0.00     0.000 OA
ENDBRANCH 25 32
BRANCH 28 37
ATOM     37   C  IDS B   2      10.342  18.520  14.4060  0.00  0.00     0.000 C
ATOM     38   O  IDS B   2      11.095  17.594  14.5960  0.00  0.00     0.000 OA
ATOM     39   O  IDS B   2      10.507  19.274  13.4160  0.00  0.00     0.000 OA
ENDBRANCH 28 37
BRANCH 24 40
ATOM     40  O4  SUS B   3       9.281  18.793  18.8870  0.00  0.00     0.000 O
BRANCH 40 44
ATOM     41  C1  SUS B   3      12.501  17.673  21.3210  0.00  0.00     0.000 C
ATOM     42  C2  SUS B   3      12.722  18.859  20.3600  0.00  0.00     0.000 C
ATOM     43  C3  SUS B   3      11.367  19.419  19.9330  0.00  0.00     0.000 C
ATOM     44  C4  SUS B   3      10.533  18.293  19.3430  0.00  0.00     0.000 C
ATOM     45  C5  SUS B   3      10.310  17.239  20.4080  0.00  0.00     0.000 C
ATOM     46  O5  SUS B   3      11.594  16.703  20.7860  0.00  0.00     0.000 O
BRANCH 42 49
ATOM     47   N  SUS B   3      14.032  18.824  19.6870  0.00  0.00     0.000 N
ATOM     49  HD  SUS B   3      14.417  18.050  19.6300  0.00  0.00     0.000 HD
ATOM     49   S  SUS B   3      15.081  19.855  20.3230  0.00  0.00     0.000 S
ATOM     50   O  SUS B   3      15.246  19.586  21.6960  0.00  0.00     0.000 OA
ATOM     51   O  SUS B   3      16.315  19.373  19.5190  0.00  0.00     0.000 OA
ATOM     52   O  SUS B   3      14.727  21.168  19.9530  0.00  0.00     0.000 OA
ENDBRANCH 42 49
BRANCH 43 53
ATOM     53   O  SUS B   3      11.606  20.456  18.9090  0.00  0.00     0.000 O
ATOM     54   S  SUS B   3      11.054  21.970  19.2330  0.00  0.00     0.000 S
ATOM     55   O  SUS B   3      11.895  22.526  20.2830  0.00  0.00     0.000 OA
ATOM     56   O  SUS B   3      11.167  22.664  17.9630  0.00  0.00     0.000 OA
ATOM     57   O  SUS B   3       9.668  21.818  19.6870  0.00  0.00     0.000 OA
ENDBRANCH 43 53
BRANCH 45 58
ATOM     58   C  SUS B   3       9.402  16.129  19.9250  0.00  0.00     0.000 C
ATOM     59   S  SUS B   3       7.945  14.188  20.7580  0.00  0.00     0.000 S
ATOM     60   O  SUS B   3       8.765  15.510  21.0550  0.00  0.00     0.000 O
ATOM     61   O  SUS B   3       8.943  13.144  20.6240  0.00  0.00     0.000 OA
ATOM     62   O  SUS B   3       7.178  14.071  21.9700  0.00  0.00     0.000 OA
ATOM     63   O  SUS B   3       7.191  14.463  19.5870  0.00  0.00     0.000 OA
ENDBRANCH 45 58
BRANCH 41 64
ATOM     64  O4  IDS B   4      12.223  18.051  22.6110  0.00  0.00     0.000 O
BRANCH 64 68
ATOM     65  C1  IDS B   4      12.457  17.864  26.2420  0.00  0.00     0.000 C
ATOM     66  C2  IDS B   4      13.693  17.599  25.3740  0.00  0.00     0.000 C
ATOM     67  C3  IDS B   4      13.446  16.668  24.1980  0.00  0.00     0.000 C
ATOM     68  C4  IDS B   4      12.119  16.926  23.5110  0.00  0.00     0.000 C
ATOM     69  C5  IDS B   4      11.048  17.107  24.5950  0.00  0.00     0.000 C
ATOM     70  O5  IDS B   4      11.381  18.240  25.4010  0.00  0.00     0.000 O
ATOM     71   O  IDS B   4      13.478  15.347  24.6950  0.00  0.00     0.000 O
ATOM     73  HD  IDS B   4      13.629  16.199  24.7150  0.00  0.00     0.000 HD
BRANCH 66 73
ATOM     73   O  IDS B   4      14.137  18.868  24.7820  0.00  0.00     0.000 O
ATOM     74   S  IDS B   4      15.407  19.614  25.4510  0.00  0.00     0.000 S
ATOM     75   O  IDS B   4      15.074  19.818  26.8450  0.00  0.00     0.000 OA
ATOM     76   O  IDS B   4      15.476  20.830  24.6810  0.00  0.00     0.000 OA
ATOM     77   O  IDS B   4      16.525  18.722  25.2560  0.00  0.00     0.000 OA
ENDBRANCH 66 73
BRANCH 69 78
ATOM     78   C  IDS B   4       9.620  17.156  24.0670  0.00  0.00     0.000 C
ATOM     79   O  IDS B   4       8.866  16.216  24.3170  0.00  0.00     0.000 OA
ATOM     80   O  IDS B   4       9.232  18.190  23.4940  0.00  0.00     0.000 OA
ENDBRANCH 69 78
BRANCH 65 81
ATOM     81  O4  SGN B   5      12.248  16.803  27.0690  0.00  0.00     0.000 O
BRANCH 81 85
ATOM     82  C1  SGN B   5      10.822  15.804  30.8910  0.00  0.00     0.000 C
ATOM     83  C2  SGN B   5       9.823  15.712  29.7280  0.00  0.00     0.000 C
ATOM     84  C3  SGN B   5      10.588  15.647  28.3990  0.00  0.00     0.000 C
ATOM     85  C4  SGN B   5      11.516  16.846  28.2960  0.00  0.00     0.000 C
ATOM     86  C5  SGN B   5      12.470  16.817  29.4870  0.00  0.00     0.000 C
ATOM     87  O5  SGN B   5      11.698  16.899  30.7000  0.00  0.00     0.000 O
ATOM     88   O  SGN B   5       9.677  15.620  27.3220  0.00  0.00     0.000 O
ATOM     90  HD  SGN B   5      10.101  14.934  27.6390  0.00  0.00     0.000 HD
BRANCH 83 92
ATOM     90   N  SGN B   5       8.910  15.535  30.8740  0.00  0.00     0.000 N
ATOM     92  HD  SGN B   5       8.890  16.246  31.3680  0.00  0.00     0.000 HD
ATOM     92   S  SGN B   5       7.488  14.858  30.6030  0.00  0.00     0.000 S
ATOM     93   O  SGN B   5       6.854  14.838  31.8870  0.00  0.00     0.000 OA
ATOM     94   O  SGN B   5       6.907  15.595  29.5330  0.00  0.00     0.000 OA
ATOM     95   O  SGN B   5       7.812  13.477  30.0760  0.00  0.00     0.000 OA
ENDBRANCH 83 92
BRANCH 86 96
ATOM     96   C  SGN B   5      13.469  17.955  29.5090  0.00  0.00     0.000 C
ATOM     97   O  SGN B   5      12.795  19.215  29.4910  0.00  0.00     0.000 O
ATOM     98   S  SGN B   5      13.236  20.269  30.6160  0.00  0.00     0.000 S
ATOM     99   O  SGN B   5      12.547  21.471  30.2140  0.00  0.00     0.000 OA
ATOM    100   O  SGN B   5      12.831  19.746  31.8720  0.00  0.00     0.000 OA
ATOM    101   O  SGN B   5      14.653  20.358  30.4820  0.00  0.00     0.000 OA
ENDBRANCH 86 96
BRANCH 82 102
ATOM    102  O4  IDS B   6      11.531  14.654  31.0670  0.00  0.00     0.000 O
BRANCH 102 106
ATOM    103  C1  IDS B   6      12.629  12.442  33.7420  0.00  0.00     0.000 C
ATOM    104  C2  IDS B   6      11.559  13.514  33.9990  0.00  0.00     0.000 C
ATOM    105  C3  IDS B   6      11.891  14.894  33.4630  0.00  0.00     0.000 C
ATOM    106  C4  IDS B   6      12.539  14.850  32.0910  0.00  0.00     0.000 C
ATOM    107  C5  IDS B   6      13.584  13.731  32.0480  0.00  0.00     0.000 C
ATOM    108  O5  IDS B   6      13.020  12.462  32.3830  0.00  0.00     0.000 O
ATOM    109   O  IDS B   6      12.738  15.539  34.4000  0.00  0.00     0.000 O
ATOM    111  HD  IDS B   6      13.098  14.886  34.8400  0.00  0.00     0.000 HD
BRANCH 104 111
ATOM    111   O  IDS B   6      10.315  13.122  33.3190  0.00  0.00     0.000 O
ATOM    112   S  IDS B   6       9.083  12.642  34.2220  0.00  0.00     0.000 S
ATOM    113   O  IDS B   6       9.598  11.505  34.9680  0.00  0.00     0.000 OA
ATOM    114   O  IDS B   6       8.646  13.772  35.0510  0.00  0.00     0.000 OA
ATOM    115   O  IDS B   6       8.151  12.284  33.1740  0.00  0.00     0.000 OA
ENDBRANCH 104 111
BRANCH 107 116
ATOM    116   C  IDS B   6      14.202  13.672  30.6570  0.00  0.00     0.000 C
ATOM    117   O  IDS B   6      13.895  12.733  29.9670  0.00  0.00     0.000 OA
ATOM    118   O  IDS B   6      14.978  14.531  30.2700  0.00  0.00     0.000 OA
ENDBRANCH 107 116
BRANCH 103 119
ATOM    119  O4  SGN B   7      13.529  12.641  34.7390  0.00  0.00     0.000 O
BRANCH 119 123
ATOM    120  C1  SGN B   7      16.435  10.218  36.5220  0.00  0.00     0.000 C
ATOM    121  C2  SGN B   7      16.920  11.347  35.5930  0.00  0.00     0.000 C
ATOM    122  C3  SGN B   7      15.798  12.366  35.3540  0.00  0.00     0.000 C
ATOM    123  C4  SGN B   7      14.552  11.652  34.8570  0.00  0.00     0.000 C
ATOM    124  C5  SGN B   7      14.155  10.544  35.8460  0.00  0.00     0.000 C
ATOM    125  O5  SGN B   7      15.239   9.608  36.0390  0.00  0.00     0.000 O
ATOM    126   O  SGN B   7      16.250  13.344  34.4110  0.00  0.00     0.000 O
ATOM    128  HD  SGN B   7      16.443  12.677  34.9290  0.00  0.00     0.000 HD
BRANCH 121 130
ATOM    128   N  SGN B   7      18.131  11.695  36.3390  0.00  0.00     0.000 N
ATOM    130  HD  SGN B   7      18.357  10.860  36.3770  0.00  0.00     0.000 HD
ATOM    130   S  SGN B   7      19.596  11.640  35.6730  0.00  0.00     0.000 S
ATOM    131   O  SGN B   7      19.481  12.370  34.4570  0.00  0.00     0.000 OA
ATOM    132   O  SGN B   7      20.547  12.025  36.6530  0.00  0.00     0.000 OA
ATOM    133   O  SGN B   7      19.781  10.091  35.5300  0.00  0.00     0.000 OA
ENDBRANCH 121 130
BRANCH 124 134
ATOM    134   C  SGN B   7      13.001   9.703  35.3850  0.00  0.00     0.000 C
ATOM    135   O  SGN B   7      13.200   8.358  35.8510  0.00  0.00     0.000 O
ATOM    136   S  SGN B   7      12.021   7.350  35.6030  0.00  0.00     0.000 S
ATOM    137   O  SGN B   7      12.486   6.060  36.0550  0.00  0.00     0.000 OA
ATOM    138   O  SGN B   7      11.778   7.395  34.1780  0.00  0.00     0.000 OA
ATOM    139   O  SGN B   7      10.952   7.912  36.4140  0.00  0.00     0.000 OA
ENDBRANCH 124 134
BRANCH 120 140
ATOM    140  O4  IDS B   8      16.119  10.299  37.8200  0.00  0.00     0.000 O
BRANCH 140 144
ATOM    141  C1  IDS B   8      16.749  10.193  41.3630  0.00  0.00     0.000 C
ATOM    142  C2  IDS B   8      17.486   9.229  40.3910  0.00  0.00     0.000 C
ATOM    143  C3  IDS B   8      16.535   8.521  39.4060  0.00  0.00     0.000 C
ATOM    144  C4  IDS B   8      15.501   9.480  38.8200  0.00  0.00     0.000 C
ATOM    145  C5  IDS B   8      14.907  10.362  39.9300  0.00  0.00     0.000 C
ATOM    146  O5  IDS B   8      15.919  11.084  40.6270  0.00  0.00     0.000 O
BRANCH 142 147
ATOM    147   O  IDS B   8      18.467   9.996  39.5800  0.00  0.00     0.000 O
ATOM    148   S  IDS B   8      20.059   9.712  39.7050  0.00  0.00     0.000 S
ATOM    149   O  IDS B   8      20.276   8.964  40.9220  0.00  0.00     0.000 OA
ATOM    150   O  IDS B   8      20.413   8.962  38.5140  0.00  0.00     0.000 OA
ATOM    151   O  IDS B   8      20.678  11.023  39.7570  0.00  0.00     0.000 OA
ENDBRANCH 142 147
BRANCH 145 152
ATOM    152   C  IDS B   8      13.944  11.403  39.3950  0.00  0.00     0.000 C
ATOM    153   O  IDS B   8      14.309  12.569  39.2980  0.00  0.00     0.000 OA
ATOM    154   O  IDS B   8      12.826  11.067  39.0480  0.00  0.00     0.000 OA
ENDBRANCH 145 152
ENDBRANCH 140 144
ENDBRANCH 120 140
ENDBRANCH 119 123
ENDBRANCH 103 119
ENDBRANCH 102 106
ENDBRANCH 82 102
ENDBRANCH 81 85
ENDBRANCH 65 81
ENDBRANCH 64 68
ENDBRANCH 41 64
ENDBRANCH 40 44
ENDBRANCH 24 40
ENDBRANCH 23 27
ENDBRANCH 1 23
TORSDOF 31
ENDMDL
MODEL 83
REMARK VINA RESULT:      -6.6      9.980     20.958
ROOT
ATOM      1  C1  SGN B   1      20.299  20.332  21.7940  0.00  0.00     0.000 C
ATOM      2  C2  SGN B   1      20.353  20.290  20.2580  0.00  0.00     0.000 C
ATOM      3  C3  SGN B   1      21.804  20.227  19.7680  0.00  0.00     0.000 C
ATOM      4  C4  SGN B   1      22.603  21.396  20.3350  0.00  0.00     0.000 C
ATOM      5  C5  SGN B   1      22.389  21.460  21.8460  0.00  0.00     0.000 C
ATOM      6  O5  SGN B   1      20.978  21.535  22.1290  0.00  0.00     0.000 O
ATOM      7   O  SGN B   1      21.852  20.233  18.3460  0.00  0.00     0.000 O
ATOM      9  HD  SGN B   1      21.471  20.993  18.5120  0.00  0.00     0.000 HD
ATOM      9   O  SGN B   1      23.976  21.212  20.0440  0.00  0.00     0.000 O
ATOM     11  HD  SGN B   1      23.595  21.972  20.2110  0.00  0.00     0.000 HD
ENDROOT
BRANCH 2 13
ATOM     11   N  SGN B   1      18.904  20.337  19.9880  0.00  0.00     0.000 N
ATOM     13  HD  SGN B   1      19.244  19.693  20.4570  0.00  0.00     0.000 HD
ATOM     13   S  SGN B   1      18.000  19.007  19.9160  0.00  0.00     0.000 S
ATOM     14   O  SGN B   1      18.787  17.870  20.1940  0.00  0.00     0.000 OA
ATOM     15   O  SGN B   1      16.807  19.233  20.6600  0.00  0.00     0.000 OA
ATOM     16   O  SGN B   1      17.619  19.079  18.4040  0.00  0.00     0.000 OA
ENDBRANCH 2 13
BRANCH 5 17
ATOM     17   C  SGN B   1      23.044  22.646  22.5090  0.00  0.00     0.000 C
ATOM     18   O  SGN B   1      22.880  23.837  21.7130  0.00  0.00     0.000 O
ATOM     19   S  SGN B   1      24.186  24.741  21.5270  0.00  0.00     0.000 S
ATOM     20   O  SGN B   1      23.712  25.961  20.9090  0.00  0.00     0.000 OA
ATOM     21   O  SGN B   1      24.680  24.928  22.8710  0.00  0.00     0.000 OA
ATOM     22   O  SGN B   1      25.065  23.966  20.6790  0.00  0.00     0.000 OA
ENDBRANCH 5 17
BRANCH 1 23
ATOM     23  O4  IDS B   2      20.236  19.496  22.8690  0.00  0.00     0.000 O
BRANCH 23 27
ATOM     24  C1  IDS B   2      23.981  18.315  24.2150  0.00  0.00     0.000 C
ATOM     25  C2  IDS B   2      23.308  17.366  23.1990  0.00  0.00     0.000 C
ATOM     26  C3  IDS B   2      22.095  18.030  22.5530  0.00  0.00     0.000 C
ATOM     27  C4  IDS B   2      21.078  18.549  23.5600  0.00  0.00     0.000 C
ATOM     28  C5  IDS B   2      21.804  19.124  24.7930  0.00  0.00     0.000 C
ATOM     29  O5  IDS B   2      23.150  19.452  24.4830  0.00  0.00     0.000 O
ATOM     30   O  IDS B   2      21.432  17.086  21.7210  0.00  0.00     0.000 O
ATOM     32  HD  IDS B   2      20.932  16.533  22.1620  0.00  0.00     0.000 HD
BRANCH 25 32
ATOM     32   O  IDS B   2      24.232  16.964  22.1100  0.00  0.00     0.000 O
ATOM     33   S  IDS B   2      24.793  15.418  21.9700  0.00  0.00     0.000 S
ATOM     34   O  IDS B   2      25.827  15.454  20.9480  0.00  0.00     0.000 OA
ATOM     35   O  IDS B   2      25.326  14.978  23.2510  0.00  0.00     0.000 OA
ATOM     36   O  IDS B   2      23.660  14.629  21.5440  0.00  0.00     0.000 OA
ENDBRANCH 25 32
BRANCH 28 37
ATOM     37   C  IDS B   2      21.163  20.330  25.5100  0.00  0.00     0.000 C
ATOM     38   O  IDS B   2      20.177  20.029  26.1410  0.00  0.00     0.000 OA
ATOM     39   O  IDS B   2      21.595  21.508  25.5380  0.00  0.00     0.000 OA
ENDBRANCH 28 37
BRANCH 24 40
ATOM     40  O4  SUS B   3      25.033  17.885  24.9420  0.00  0.00     0.000 O
BRANCH 40 44
ATOM     41  C1  SUS B   3      28.320  19.987  26.4670  0.00  0.00     0.000 C
ATOM     42  C2  SUS B   3      26.935  20.317  27.0600  0.00  0.00     0.000 C
ATOM     43  C3  SUS B   3      25.974  19.169  26.7610  0.00  0.00     0.000 C
ATOM     44  C4  SUS B   3      25.960  18.917  25.2610  0.00  0.00     0.000 C
ATOM     45  C5  SUS B   3      27.352  18.515  24.8190  0.00  0.00     0.000 C
ATOM     46  O5  SUS B   3      28.245  19.615  25.0870  0.00  0.00     0.000 O
BRANCH 42 49
ATOM     47   N  SUS B   3      26.055  21.157  27.8920  0.00  0.00     0.000 N
ATOM     49  HD  SUS B   3      25.428  21.587  27.4780  0.00  0.00     0.000 HD
ATOM     49   S  SUS B   3      26.870  22.204  28.7900  0.00  0.00     0.000 S
ATOM     50   O  SUS B   3      27.667  23.024  27.9670  0.00  0.00     0.000 OA
ATOM     51   O  SUS B   3      25.638  22.987  29.3130  0.00  0.00     0.000 OA
ATOM     52   O  SUS B   3      27.507  21.519  29.8430  0.00  0.00     0.000 OA
ENDBRANCH 42 49
BRANCH 43 53
ATOM     53   O  SUS B   3      24.628  19.573  27.2140  0.00  0.00     0.000 O
ATOM     54   S  SUS B   3      23.914  18.640  28.3640  0.00  0.00     0.000 S
ATOM     55   O  SUS B   3      24.625  18.867  29.6140  0.00  0.00     0.000 OA
ATOM     56   O  SUS B   3      22.536  19.098  28.3820  0.00  0.00     0.000 OA
ATOM     57   O  SUS B   3      24.055  17.251  27.9180  0.00  0.00     0.000 OA
ENDBRANCH 43 53
BRANCH 45 58
ATOM     58   C  SUS B   3      27.396  18.150  23.3510  0.00  0.00     0.000 C
ATOM     59   S  SUS B   3      27.453  19.180  21.0010  0.00  0.00     0.000 S
ATOM     60   O  SUS B   3      27.596  19.340  22.5700  0.00  0.00     0.000 O
ATOM     61   O  SUS B   3      26.024  19.137  20.7530  0.00  0.00     0.000 OA
ATOM     62   O  SUS B   3      28.059  20.403  20.5510  0.00  0.00     0.000 OA
ATOM     63   O  SUS B   3      28.162  17.994  20.6750  0.00  0.00     0.000 OA
ENDBRANCH 45 58
BRANCH 41 64
ATOM     64  O4  IDS B   4      29.063  19.130  27.2410  0.00  0.00     0.000 O
BRANCH 64 68
ATOM     65  C1  IDS B   4      32.533  19.185  28.3500  0.00  0.00     0.000 C
ATOM     66  C2  IDS B   4      31.977  20.332  27.4960  0.00  0.00     0.000 C
ATOM     67  C3  IDS B   4      31.173  19.882  26.2870  0.00  0.00     0.000 C
ATOM     68  C4  IDS B   4      30.275  18.697  26.5850  0.00  0.00     0.000 C
ATOM     69  C5  IDS B   4      31.082  17.679  27.4020  0.00  0.00     0.000 C
ATOM     70  O5  IDS B   4      31.484  18.279  28.6360  0.00  0.00     0.000 O
ATOM     71   O  IDS B   4      32.096  19.540  25.2740  0.00  0.00     0.000 O
ATOM     73  HD  IDS B   4      31.840  19.914  26.0120  0.00  0.00     0.000 HD
BRANCH 66 73
ATOM     73   O  IDS B   4      31.045  21.121  28.3130  0.00  0.00     0.000 O
ATOM     74   S  IDS B   4      31.486  22.621  28.7310  0.00  0.00     0.000 S
ATOM     75   O  IDS B   4      32.753  22.499  29.4190  0.00  0.00     0.000 OA
ATOM     76   O  IDS B   4      30.394  23.025  29.5800  0.00  0.00     0.000 OA
ATOM     77   O  IDS B   4      31.578  23.355  27.4910  0.00  0.00     0.000 OA
ENDBRANCH 66 73
BRANCH 69 78
ATOM     78   C  IDS B   4      30.391  16.336  27.5940  0.00  0.00     0.000 C
ATOM     79   O  IDS B   4      30.176  15.940  28.7390  0.00  0.00     0.000 OA
ATOM     80   O  IDS B   4      29.972  15.733  26.5890  0.00  0.00     0.000 OA
ENDBRANCH 69 78
BRANCH 65 81
ATOM     81  O4  SGN B   5      33.642  18.670  27.7490  0.00  0.00     0.000 O
BRANCH 81 85
ATOM     82  C1  SGN B   5      37.295  16.740  28.4990  0.00  0.00     0.000 C
ATOM     83  C2  SGN B   5      36.032  16.095  29.0880  0.00  0.00     0.000 C
ATOM     84  C3  SGN B   5      34.793  16.630  28.3560  0.00  0.00     0.000 C
ATOM     85  C4  SGN B   5      34.782  18.147  28.4340  0.00  0.00     0.000 C
ATOM     86  C5  SGN B   5      36.069  18.669  27.8010  0.00  0.00     0.000 C
ATOM     87  O5  SGN B   5      37.191  18.151  28.5400  0.00  0.00     0.000 O
ATOM     88   O  SGN B   5      33.625  16.086  28.9290  0.00  0.00     0.000 O
ATOM     90  HD  SGN B   5      33.991  15.823  28.1900  0.00  0.00     0.000 HD
BRANCH 83 92
ATOM     90   N  SGN B   5      36.630  14.747  29.0240  0.00  0.00     0.000 N
ATOM     92  HD  SGN B   5      37.372  14.758  28.5780  0.00  0.00     0.000 HD
ATOM     92   S  SGN B   5      36.656  13.873  30.3620  0.00  0.00     0.000 S
ATOM     93   O  SGN B   5      37.292  12.650  29.9730  0.00  0.00     0.000 OA
ATOM     94   O  SGN B   5      37.250  14.702  31.3540  0.00  0.00     0.000 OA
ATOM     95   O  SGN B   5      35.200  13.695  30.7340  0.00  0.00     0.000 OA
ENDBRANCH 83 92
BRANCH 86 96
ATOM     96   C  SGN B   5      36.190  20.179  27.7960  0.00  0.00     0.000 C
ATOM     97   O  SGN B   5      35.771  20.720  29.0510  0.00  0.00     0.000 O
ATOM     98   S  SGN B   5      36.786  21.744  29.7540  0.00  0.00     0.000 S
ATOM     99   O  SGN B   5      36.009  22.254  30.8580  0.00  0.00     0.000 OA
ATOM    100   O  SGN B   5      37.939  21.009  30.1310  0.00  0.00     0.000 OA
ATOM    101   O  SGN B   5      37.053  22.722  28.7510  0.00  0.00     0.000 OA
ENDBRANCH 86 96
BRANCH 82 102
ATOM    102  O4  IDS B   6      37.555  16.319  27.2290  0.00  0.00     0.000 O
BRANCH 102 106
ATOM    103  C1  IDS B   6      39.624  14.714  24.6990  0.00  0.00     0.000 C
ATOM    104  C2  IDS B   6      39.542  14.145  26.1240  0.00  0.00     0.000 C
ATOM    105  C3  IDS B   6      39.700  15.166  27.2340  0.00  0.00     0.000 C
ATOM    106  C4  IDS B   6      38.970  16.465  26.9440  0.00  0.00     0.000 C
ATOM    107  C5  IDS B   6      39.192  16.869  25.4830  0.00  0.00     0.000 C
ATOM    108  O5  IDS B   6      38.780  15.843  24.5790  0.00  0.00     0.000 O
ATOM    109   O  IDS B   6      41.086  15.399  27.4260  0.00  0.00     0.000 O
ATOM    111  HD  IDS B   6      41.442  15.169  26.6710  0.00  0.00     0.000 HD
BRANCH 104 111
ATOM    111   O  IDS B   6      38.211  13.553  26.3280  0.00  0.00     0.000 O
ATOM    112   S  IDS B   6      38.098  11.957  26.3850  0.00  0.00     0.000 S
ATOM    113   O  IDS B   6      38.630  11.506  25.1080  0.00  0.00     0.000 OA
ATOM    114   O  IDS B   6      38.838  11.480  27.5590  0.00  0.00     0.000 OA
ATOM    115   O  IDS B   6      36.662  11.828  26.5010  0.00  0.00     0.000 OA
ENDBRANCH 104 111
BRANCH 107 116
ATOM    116   C  IDS B   6      38.426  18.153  25.1930  0.00  0.00     0.000 C
ATOM    117   O  IDS B   6      37.435  18.051  24.5160  0.00  0.00     0.000 OA
ATOM    118   O  IDS B   6      38.809  19.231  25.6200  0.00  0.00     0.000 OA
ENDBRANCH 107 116
BRANCH 103 119
ATOM    119  O4  SGN B   7      40.959  14.801  24.4640  0.00  0.00     0.000 O
BRANCH 119 123
ATOM    120  C1  SGN B   7      43.484  14.522  21.1420  0.00  0.00     0.000 C
ATOM    121  C2  SGN B   7      42.639  15.802  21.2910  0.00  0.00     0.000 C
ATOM    122  C3  SGN B   7      42.097  15.926  22.7210  0.00  0.00     0.000 C
ATOM    123  C4  SGN B   7      41.359  14.653  23.1020  0.00  0.00     0.000 C
ATOM    124  C5  SGN B   7      42.281  13.437  22.9130  0.00  0.00     0.000 C
ATOM    125  O5  SGN B   7      42.766  13.360  21.5540  0.00  0.00     0.000 O
ATOM    126   O  SGN B   7      41.239  17.070  22.7960  0.00  0.00     0.000 O
ATOM    128  HD  SGN B   7      41.819  16.614  22.3430  0.00  0.00     0.000 HD
BRANCH 121 130
ATOM    128   N  SGN B   7      42.691  16.258  19.9000  0.00  0.00     0.000 N
ATOM    130  HD  SGN B   7      42.063  16.833  20.0570  0.00  0.00     0.000 HD
ATOM    130   S  SGN B   7      43.326  17.679  19.4840  0.00  0.00     0.000 S
ATOM    131   O  SGN B   7      44.601  17.715  20.1150  0.00  0.00     0.000 OA
ATOM    132   O  SGN B   7      43.217  17.822  18.0770  0.00  0.00     0.000 OA
ATOM    133   O  SGN B   7      42.244  18.651  20.0660  0.00  0.00     0.000 OA
ENDBRANCH 121 130
BRANCH 124 134
ATOM    134   C  SGN B   7      41.605  12.120  23.1540  0.00  0.00     0.000 C
ATOM    135   O  SGN B   7      41.671  11.344  21.9450  0.00  0.00     0.000 O
ATOM    136   S  SGN B   7      41.152   9.864  22.0340  0.00  0.00     0.000 S
ATOM    137   O  SGN B   7      41.218   9.329  20.6950  0.00  0.00     0.000 OA
ATOM    138   O  SGN B   7      39.799   9.967  22.5340  0.00  0.00     0.000 OA
ATOM    139   O  SGN B   7      42.093   9.257  22.9630  0.00  0.00     0.000 OA
ENDBRANCH 124 134
BRANCH 120 140
ATOM    140  O4  IDS B   8      44.667  14.247  21.7030  0.00  0.00     0.000 O
BRANCH 140 144
ATOM    141  C1  IDS B   8      47.661  12.959  23.2320  0.00  0.00     0.000 C
ATOM    142  C2  IDS B   8      46.529  13.588  24.0940  0.00  0.00     0.000 C
ATOM    143  C3  IDS B   8      46.049  14.950  23.5590  0.00  0.00     0.000 C
ATOM    144  C4  IDS B   8      45.875  14.940  22.0420  0.00  0.00     0.000 C
ATOM    145  C5  IDS B   8      47.079  14.258  21.3750  0.00  0.00     0.000 C
ATOM    146  O5  IDS B   8      47.272  12.933  21.8640  0.00  0.00     0.000 O
BRANCH 142 147
ATOM    147   O  IDS B   8      45.352  12.680  24.1060  0.00  0.00     0.000 O
ATOM    148   S  IDS B   8      44.899  11.917  25.4640  0.00  0.00     0.000 S
ATOM    149   O  IDS B   8      46.004  11.982  26.3930  0.00  0.00     0.000 OA
ATOM    150   O  IDS B   8      43.727  12.631  25.9360  0.00  0.00     0.000 OA
ATOM    151   O  IDS B   8      44.611  10.555  25.0590  0.00  0.00     0.000 OA
ENDBRANCH 142 147
BRANCH 145 152
ATOM    152   C  IDS B   8      46.918  14.128  19.8730  0.00  0.00     0.000 C
ATOM    153   O  IDS B   8      47.083  13.037  19.3400  0.00  0.00     0.000 OA
ATOM    154   O  IDS B   8      46.607  15.104  19.2150  0.00  0.00     0.000 OA
ENDBRANCH 145 152
ENDBRANCH 140 144
ENDBRANCH 120 140
ENDBRANCH 119 123
ENDBRANCH 103 119
ENDBRANCH 102 106
ENDBRANCH 82 102
ENDBRANCH 81 85
ENDBRANCH 65 81
ENDBRANCH 64 68
ENDBRANCH 41 64
ENDBRANCH 40 44
ENDBRANCH 24 40
ENDBRANCH 23 27
ENDBRANCH 1 23
TORSDOF 31
ENDMDL
MODEL 84
REMARK VINA RESULT:      -6.6     10.306     19.758
ROOT
ATOM      1  C1  SGN B   1      19.480  19.805  19.6650  0.00  0.00     0.000 C
ATOM      2  C2  SGN B   1      18.477  18.659  19.4530  0.00  0.00     0.000 C
ATOM      3  C3  SGN B   1      19.024  17.346  20.0250  0.00  0.00     0.000 C
ATOM      4  C4  SGN B   1      20.386  17.033  19.4140  0.00  0.00     0.000 C
ATOM      5  C5  SGN B   1      21.282  18.263  19.5340  0.00  0.00     0.000 C
ATOM      6  O5  SGN B   1      20.628  19.397  18.9330  0.00  0.00     0.000 O
ATOM      7   O  SGN B   1      18.113  16.279  19.7880  0.00  0.00     0.000 O
ATOM      9  HD  SGN B   1      18.306  16.529  18.9810  0.00  0.00     0.000 HD
ATOM      9   O  SGN B   1      20.966  15.936  20.0960  0.00  0.00     0.000 O
ATOM     11  HD  SGN B   1      21.159  16.186  19.2890  0.00  0.00     0.000 HD
ENDROOT
BRANCH 2 13
ATOM     11   N  SGN B   1      17.132  18.916  20.0010  0.00  0.00     0.000 N
ATOM     13  HD  SGN B   1      17.344  19.193  19.2090  0.00  0.00     0.000 HD
ATOM     13   S  SGN B   1      16.254  20.190  19.5610  0.00  0.00     0.000 S
ATOM     14   O  SGN B   1      16.940  20.937  18.5800  0.00  0.00     0.000 OA
ATOM     15   O  SGN B   1      14.923  19.754  19.3050  0.00  0.00     0.000 OA
ATOM     16   O  SGN B   1      16.238  20.934  20.9320  0.00  0.00     0.000 OA
ENDBRANCH 2 13
BRANCH 5 17
ATOM     17   C  SGN B   1      22.626  18.112  18.8650  0.00  0.00     0.000 C
ATOM     18   O  SGN B   1      22.539  17.226  17.7310  0.00  0.00     0.000 O
ATOM     19   S  SGN B   1      23.698  16.130  17.6070  0.00  0.00     0.000 S
ATOM     20   O  SGN B   1      23.520  15.542  16.2970  0.00  0.00     0.000 OA
ATOM     21   O  SGN B   1      24.918  16.892  17.7390  0.00  0.00     0.000 OA
ATOM     22   O  SGN B   1      23.461  15.206  18.6940  0.00  0.00     0.000 OA
ENDBRANCH 5 17
BRANCH 1 23
ATOM     23  O4  IDS B   2      19.804  20.767  20.5760  0.00  0.00     0.000 O
BRANCH 23 27
ATOM     24  C1  IDS B   2      22.882  19.751  23.1680  0.00  0.00     0.000 C
ATOM     25  C2  IDS B   2      21.466  19.323  23.6140  0.00  0.00     0.000 C
ATOM     26  C3  IDS B   2      20.466  19.474  22.4710  0.00  0.00     0.000 C
ATOM     27  C4  IDS B   2      20.441  20.871  21.8660  0.00  0.00     0.000 C
ATOM     28  C5  IDS B   2      21.868  21.454  21.8270  0.00  0.00     0.000 C
ATOM     29  O5  IDS B   2      22.840  20.422  21.9020  0.00  0.00     0.000 O
ATOM     30   O  IDS B   2      19.157  19.192  22.9540  0.00  0.00     0.000 O
ATOM     32  HD  IDS B   2      18.805  19.852  23.3910  0.00  0.00     0.000 HD
BRANCH 25 32
ATOM     32   O  IDS B   2      21.422  17.910  24.0650  0.00  0.00     0.000 O
ATOM     33   S  IDS B   2      20.967  17.498  25.5960  0.00  0.00     0.000 S
ATOM     34   O  IDS B   2      21.260  16.080  25.7380  0.00  0.00     0.000 OA
ATOM     35   O  IDS B   2      21.718  18.295  26.5560  0.00  0.00     0.000 OA
ATOM     36   O  IDS B   2      19.546  17.751  25.6620  0.00  0.00     0.000 OA
ENDBRANCH 25 32
BRANCH 28 37
ATOM     37   C  IDS B   2      22.235  22.382  20.6510  0.00  0.00     0.000 C
ATOM     38   O  IDS B   2      22.991  21.863  19.8640  0.00  0.00     0.000 OA
ATOM     39   O  IDS B   2      21.788  23.534  20.4300  0.00  0.00     0.000 OA
ENDBRANCH 28 37
BRANCH 24 40
ATOM     40  O4  SUS B   3      23.896  19.753  24.0590  0.00  0.00     0.000 O
BRANCH 40 44
ATOM     41  C1  SUS B   3      27.965  18.901  23.5430  0.00  0.00     0.000 C
ATOM     42  C2  SUS B   3      27.426  20.190  22.8920  0.00  0.00     0.000 C
ATOM     43  C3  SUS B   3      26.111  20.581  23.5620  0.00  0.00     0.000 C
ATOM     44  C4  SUS B   3      25.152  19.404  23.4870  0.00  0.00     0.000 C
ATOM     45  C5  SUS B   3      25.752  18.234  24.2380  0.00  0.00     0.000 C
ATOM     46  O5  SUS B   3      26.981  17.861  23.5820  0.00  0.00     0.000 O
BRANCH 42 49
ATOM     47   N  SUS B   3      28.449  21.250  22.9220  0.00  0.00     0.000 N
ATOM     49  HD  SUS B   3      28.208  22.011  23.2580  0.00  0.00     0.000 HD
ATOM     49   S  SUS B   3      29.098  21.524  21.4830  0.00  0.00     0.000 S
ATOM     50   O  SUS B   3      28.089  21.866  20.5600  0.00  0.00     0.000 OA
ATOM     51   O  SUS B   3      29.914  22.778  21.8900  0.00  0.00     0.000 OA
ATOM     52   O  SUS B   3      29.956  20.458  21.1470  0.00  0.00     0.000 OA
ENDBRANCH 42 49
BRANCH 43 53
ATOM     53   O  SUS B   3      25.551  21.733  22.8280  0.00  0.00     0.000 O
ATOM     54   S  SUS B   3      25.447  23.159  23.6370  0.00  0.00     0.000 S
ATOM     55   O  SUS B   3      26.802  23.666  23.8040  0.00  0.00     0.000 OA
ATOM     56   O  SUS B   3      24.612  23.987  22.7850  0.00  0.00     0.000 OA
ATOM     57   O  SUS B   3      24.830  22.857  24.9320  0.00  0.00     0.000 OA
ENDBRANCH 43 53
BRANCH 45 58
ATOM     58   C  SUS B   3      24.809  17.052  24.2940  0.00  0.00     0.000 C
ATOM     59   S  SUS B   3      23.774  15.207  22.8400  0.00  0.00     0.000 S
ATOM     60   O  SUS B   3      24.856  16.346  23.0420  0.00  0.00     0.000 O
ATOM     61   O  SUS B   3      22.545  15.905  22.5130  0.00  0.00     0.000 OA
ATOM     62   O  SUS B   3      24.331  14.505  21.7150  0.00  0.00     0.000 OA
ATOM     63   O  SUS B   3      23.754  14.481  24.0610  0.00  0.00     0.000 OA
ENDBRANCH 45 58
BRANCH 41 64
ATOM     64  O4  IDS B   4      28.607  19.111  24.7390  0.00  0.00     0.000 O
BRANCH 64 68
ATOM     65  C1  IDS B   4      31.541  19.478  26.8680  0.00  0.00     0.000 C
ATOM     66  C2  IDS B   4      31.573  19.974  25.4170  0.00  0.00     0.000 C
ATOM     67  C3  IDS B   4      31.016  18.988  24.4040  0.00  0.00     0.000 C
ATOM     68  C4  IDS B   4      29.773  18.273  24.8990  0.00  0.00     0.000 C
ATOM     69  C5  IDS B   4      30.018  17.839  26.3510  0.00  0.00     0.000 C
ATOM     70  O5  IDS B   4      30.240  18.999  27.1570  0.00  0.00     0.000 O
ATOM     71   O  IDS B   4      32.033  18.045  24.1330  0.00  0.00     0.000 O
ATOM     73  HD  IDS B   4      31.712  18.796  24.4220  0.00  0.00     0.000 HD
BRANCH 66 73
ATOM     73   O  IDS B   4      30.726  21.169  25.3060  0.00  0.00     0.000 O
ATOM     74   S  IDS B   4      31.450  22.616  25.3200  0.00  0.00     0.000 S
ATOM     75   O  IDS B   4      32.219  22.677  26.5440  0.00  0.00     0.000 OA
ATOM     76   O  IDS B   4      30.321  23.512  25.2900  0.00  0.00     0.000 OA
ATOM     77   O  IDS B   4      32.266  22.650  24.1300  0.00  0.00     0.000 OA
ENDBRANCH 66 73
BRANCH 69 78
ATOM     78   C  IDS B   4      28.949  16.917  26.9210  0.00  0.00     0.000 C
ATOM     79   O  IDS B   4      28.315  16.199  26.1490  0.00  0.00     0.000 OA
ATOM     80   O  IDS B   4      28.825  16.842  28.1570  0.00  0.00     0.000 OA
ENDBRANCH 69 78
BRANCH 65 81
ATOM     81  O4  SGN B   5      32.574  18.615  27.0750  0.00  0.00     0.000 O
BRANCH 81 85
ATOM     82  C1  SGN B   5      35.454  17.401  29.8790  0.00  0.00     0.000 C
ATOM     83  C2  SGN B   5      34.015  16.913  30.1020  0.00  0.00     0.000 C
ATOM     84  C3  SGN B   5      33.222  17.039  28.7930  0.00  0.00     0.000 C
ATOM     85  C4  SGN B   5      33.297  18.473  28.3000  0.00  0.00     0.000 C
ATOM     86  C5  SGN B   5      34.766  18.834  28.0940  0.00  0.00     0.000 C
ATOM     87  O5  SGN B   5      35.451  18.716  29.3560  0.00  0.00     0.000 O
ATOM     88   O  SGN B   5      31.884  16.646  29.0040  0.00  0.00     0.000 O
ATOM     90  HD  SGN B   5      32.496  16.163  28.6270  0.00  0.00     0.000 HD
BRANCH 83 92
ATOM     90   N  SGN B   5      34.606  15.797  30.8660  0.00  0.00     0.000 N
ATOM     92  HD  SGN B   5      35.468  15.870  30.9050  0.00  0.00     0.000 HD
ATOM     92   S  SGN B   5      33.901  15.367  32.2340  0.00  0.00     0.000 S
ATOM     93   O  SGN B   5      34.704  14.287  32.7230  0.00  0.00     0.000 OA
ATOM     94   O  SGN B   5      33.774  16.562  32.9960  0.00  0.00     0.000 OA
ATOM     95   O  SGN B   5      32.507  14.939  31.8300  0.00  0.00     0.000 OA
ENDBRANCH 83 92
BRANCH 86 96
ATOM     96   C  SGN B   5      34.994  20.243  27.5870  0.00  0.00     0.000 C
ATOM     97   O  SGN B   5      36.113  20.282  26.6980  0.00  0.00     0.000 O
ATOM     98   S  SGN B   5      35.866  20.995  25.2830  0.00  0.00     0.000 S
ATOM     99   O  SGN B   5      37.194  21.055  24.7210  0.00  0.00     0.000 OA
ATOM    100   O  SGN B   5      34.950  20.192  24.5560  0.00  0.00     0.000 OA
ATOM    101   O  SGN B   5      35.337  22.277  25.6200  0.00  0.00     0.000 OA
ENDBRANCH 86 96
BRANCH 82 102
ATOM    102  O4  IDS B   6      36.172  16.570  29.0710  0.00  0.00     0.000 O
BRANCH 102 106
ATOM    103  C1  IDS B   6      39.315  14.777  28.6650  0.00  0.00     0.000 C
ATOM    104  C2  IDS B   6      38.844  15.233  30.0550  0.00  0.00     0.000 C
ATOM    105  C3  IDS B   6      38.362  16.669  30.1310  0.00  0.00     0.000 C
ATOM    106  C4  IDS B   6      37.525  17.071  28.9290  0.00  0.00     0.000 C
ATOM    107  C5  IDS B   6      38.172  16.538  27.6470  0.00  0.00     0.000 C
ATOM    108  O5  IDS B   6      38.350  15.122  27.6890  0.00  0.00     0.000 O
ATOM    109   O  IDS B   6      39.497  17.510  30.2580  0.00  0.00     0.000 O
ATOM    111  HD  IDS B   6      40.145  17.036  29.9320  0.00  0.00     0.000 HD
BRANCH 104 111
ATOM    111   O  IDS B   6      37.693  14.415  30.4640  0.00  0.00     0.000 O
ATOM    112   S  IDS B   6      37.970  13.123  31.3680  0.00  0.00     0.000 S
ATOM    113   O  IDS B   6      38.877  12.308  30.5740  0.00  0.00     0.000 OA
ATOM    114   O  IDS B   6      38.514  13.566  32.6570  0.00  0.00     0.000 OA
ATOM    115   O  IDS B   6      36.624  12.598  31.4450  0.00  0.00     0.000 OA
ENDBRANCH 104 111
BRANCH 107 116
ATOM    116   C  IDS B   6      37.306  16.916  26.4520  0.00  0.00     0.000 C
ATOM    117   O  IDS B   6      36.315  16.254  26.2700  0.00  0.00     0.000 OA
ATOM    118   O  IDS B   6      37.611  17.838  25.7130  0.00  0.00     0.000 OA
ENDBRANCH 107 116
BRANCH 103 119
ATOM    119  O4  SGN B   7      40.590  15.237  28.5910  0.00  0.00     0.000 O
BRANCH 119 123
ATOM    120  C1  SGN B   7      43.630  15.110  25.7220  0.00  0.00     0.000 C
ATOM    121  C2  SGN B   7      42.736  16.364  25.7580  0.00  0.00     0.000 C
ATOM    122  C3  SGN B   7      41.964  16.436  27.0820  0.00  0.00     0.000 C
ATOM    123  C4  SGN B   7      41.211  15.135  27.3090  0.00  0.00     0.000 C
ATOM    124  C5  SGN B   7      42.187  13.949  27.2470  0.00  0.00     0.000 C
ATOM    125  O5  SGN B   7      42.890  13.920  25.9850  0.00  0.00     0.000 O
ATOM    126   O  SGN B   7      41.072  17.555  27.0410  0.00  0.00     0.000 O
ATOM    128  HD  SGN B   7      41.731  17.126  26.6790  0.00  0.00     0.000 HD
BRANCH 121 130
ATOM    128   N  SGN B   7      43.849  17.176  25.2620  0.00  0.00     0.000 N
ATOM    130  HD  SGN B   7      43.845  16.738  24.5150  0.00  0.00     0.000 HD
ATOM    130   S  SGN B   7      43.652  18.304  24.1300  0.00  0.00     0.000 S
ATOM    131   O  SGN B   7      42.562  19.099  24.5820  0.00  0.00     0.000 OA
ATOM    132   O  SGN B   7      44.913  18.899  23.8690  0.00  0.00     0.000 OA
ATOM    133   O  SGN B   7      43.373  17.403  22.8800  0.00  0.00     0.000 OA
ENDBRANCH 121 130
BRANCH 124 134
ATOM    134   C  SGN B   7      41.520  12.608  27.3450  0.00  0.00     0.000 C
ATOM    135   O  SGN B   7      40.500  12.529  26.3350  0.00  0.00     0.000 O
ATOM    136   S  SGN B   7      39.784  11.141  26.1700  0.00  0.00     0.000 S
ATOM    137   O  SGN B   7      38.746  11.334  25.1860  0.00  0.00     0.000 OA
ATOM    138   O  SGN B   7      39.268  10.823  27.4820  0.00  0.00     0.000 OA
ATOM    139   O  SGN B   7      40.869  10.280  25.7250  0.00  0.00     0.000 OA
ENDBRANCH 124 134
BRANCH 120 140
ATOM    140  O4  IDS B   8      44.714  14.851  26.4630  0.00  0.00     0.000 O
BRANCH 140 144
ATOM    141  C1  IDS B   8      47.541  13.596  28.3050  0.00  0.00     0.000 C
ATOM    142  C2  IDS B   8      46.194  13.904  29.0190  0.00  0.00     0.000 C
ATOM    143  C3  IDS B   8      45.624  15.289  28.6610  0.00  0.00     0.000 C
ATOM    144  C4  IDS B   8      45.727  15.581  27.1650  0.00  0.00     0.000 C
ATOM    145  C5  IDS B   8      47.118  15.188  26.6430  0.00  0.00     0.000 C
ATOM    146  O5  IDS B   8      47.411  13.818  26.9060  0.00  0.00     0.000 O
BRANCH 142 147
ATOM    147   O  IDS B   8      45.179  12.893  28.6200  0.00  0.00     0.000 O
ATOM    148   S  IDS B   8      44.789  11.667  29.6070  0.00  0.00     0.000 S
ATOM    149   O  IDS B   8      45.823  11.566  30.6120  0.00  0.00     0.000 OA
ATOM    150   O  IDS B   8      43.495  12.016  30.1650  0.00  0.00     0.000 OA
ATOM    151   O  IDS B   8      44.743  10.492  28.7570  0.00  0.00     0.000 OA
ENDBRANCH 142 147
BRANCH 145 152
ATOM    152   C  IDS B   8      47.249  15.362  25.1440  0.00  0.00     0.000 C
ATOM    153   O  IDS B   8      46.900  16.417  24.6250  0.00  0.00     0.000 OA
ATOM    154   O  IDS B   8      47.719  14.462  24.4720  0.00  0.00     0.000 OA
ENDBRANCH 145 152
ENDBRANCH 140 144
ENDBRANCH 120 140
ENDBRANCH 119 123
ENDBRANCH 103 119
ENDBRANCH 102 106
ENDBRANCH 82 102
ENDBRANCH 81 85
ENDBRANCH 65 81
ENDBRANCH 64 68
ENDBRANCH 41 64
ENDBRANCH 40 44
ENDBRANCH 24 40
ENDBRANCH 23 27
ENDBRANCH 1 23
TORSDOF 31
ENDMDL
MODEL 85
REMARK VINA RESULT:      -6.6      6.275     11.858
ROOT
ATOM      1  C1  SGN B   1      35.895  23.217   7.9270  0.00  0.00     0.000 C
ATOM      2  C2  SGN B   1      36.482  24.589   8.2970  0.00  0.00     0.000 C
ATOM      3  C3  SGN B   1      35.742  25.189   9.4980  0.00  0.00     0.000 C
ATOM      4  C4  SGN B   1      34.247  25.267   9.2100  0.00  0.00     0.000 C
ATOM      5  C5  SGN B   1      33.763  23.906   8.7130  0.00  0.00     0.000 C
ATOM      6  O5  SGN B   1      34.548  23.502   7.5750  0.00  0.00     0.000 O
ATOM      7   O  SGN B   1      36.258  26.478   9.8100  0.00  0.00     0.000 O
ATOM      9  HD  SGN B   1      35.967  26.595   9.0030  0.00  0.00     0.000 HD
ATOM      9   O  SGN B   1      33.558  25.628  10.3930  0.00  0.00     0.000 O
ATOM     11  HD  SGN B   1      33.266  25.745   9.5860  0.00  0.00     0.000 HD
ENDROOT
BRANCH 2 13
ATOM     11   N  SGN B   1      37.592  24.830   7.3570  0.00  0.00     0.000 N
ATOM     13  HD  SGN B   1      37.507  24.063   7.7490  0.00  0.00     0.000 HD
ATOM     13   S  SGN B   1      39.001  24.063   7.4770  0.00  0.00     0.000 S
ATOM     14   O  SGN B   1      38.962  23.139   8.5420  0.00  0.00     0.000 OA
ATOM     15   O  SGN B   1      39.384  23.619   6.1780  0.00  0.00     0.000 OA
ATOM     16   O  SGN B   1      39.896  25.292   7.8240  0.00  0.00     0.000 OA
ENDBRANCH 2 13
BRANCH 5 17
ATOM     17   C  SGN B   1      32.315  23.887   8.2900  0.00  0.00     0.000 C
ATOM     18   O  SGN B   1      31.729  25.200   8.3980  0.00  0.00     0.000 O
ATOM     19   S  SGN B   1      30.283  25.268   9.0770  0.00  0.00     0.000 S
ATOM     20   O  SGN B   1      29.828  26.624   8.8530  0.00  0.00     0.000 OA
ATOM     21   O  SGN B   1      29.512  24.275   8.3660  0.00  0.00     0.000 OA
ATOM     22   O  SGN B   1      30.505  24.954  10.4710  0.00  0.00     0.000 OA
ENDBRANCH 5 17
BRANCH 1 23
ATOM     23  O4  IDS B   2      36.051  21.893   8.2140  0.00  0.00     0.000 O
BRANCH 23 27
ATOM     24  C1  IDS B   2      33.786  20.635  11.4580  0.00  0.00     0.000 C
ATOM     25  C2  IDS B   2      35.219  21.110  11.7880  0.00  0.00     0.000 C
ATOM     26  C3  IDS B   2      35.848  21.819  10.5920  0.00  0.00     0.000 C
ATOM     27  C4  IDS B   2      35.837  20.987   9.3170  0.00  0.00     0.000 C
ATOM     28  C5  IDS B   2      34.530  20.173   9.2300  0.00  0.00     0.000 C
ATOM     29  O5  IDS B   2      33.522  20.742  10.0520  0.00  0.00     0.000 O
ATOM     30   O  IDS B   2      37.204  22.129  10.8920  0.00  0.00     0.000 O
ATOM     32  HD  IDS B   2      37.736  21.451  10.8070  0.00  0.00     0.000 HD
BRANCH 25 32
ATOM     32   O  IDS B   2      35.247  22.051  12.9340  0.00  0.00     0.000 O
ATOM     33   S  IDS B   2      36.185  21.777  14.2640  0.00  0.00     0.000 S
ATOM     34   O  IDS B   2      35.789  22.768  15.2510  0.00  0.00     0.000 OA
ATOM     35   O  IDS B   2      35.954  20.423  14.7480  0.00  0.00     0.000 OA
ATOM     36   O  IDS B   2      37.548  21.982  13.8300  0.00  0.00     0.000 OA
ENDBRANCH 25 32
BRANCH 28 37
ATOM     37   C  IDS B   2      33.930  19.921   7.8310  0.00  0.00     0.000 C
ATOM     38   O  IDS B   2      32.849  20.442   7.6860  0.00  0.00     0.000 OA
ATOM     39   O  IDS B   2      34.471  19.313   6.8760  0.00  0.00     0.000 OA
ENDBRANCH 28 37
BRANCH 24 40
ATOM     40  O4  SUS B   3      33.087  19.925  12.3670  0.00  0.00     0.000 O
BRANCH 40 44
ATOM     41  C1  SUS B   3      28.973  19.823  13.1500  0.00  0.00     0.000 C
ATOM     42  C2  SUS B   3      29.447  19.259  11.7950  0.00  0.00     0.000 C
ATOM     43  C3  SUS B   3      30.936  18.934  11.8790  0.00  0.00     0.000 C
ATOM     44  C4  SUS B   3      31.687  20.179  12.3270  0.00  0.00     0.000 C
ATOM     45  C5  SUS B   3      31.196  20.579  13.7030  0.00  0.00     0.000 C
ATOM     46  O5  SUS B   3      29.795  20.903  13.6060  0.00  0.00     0.000 O
BRANCH 42 49
ATOM     47   N  SUS B   3      28.081  19.525  11.3100  0.00  0.00     0.000 N
ATOM     49  HD  SUS B   3      27.460  19.576  11.9120  0.00  0.00     0.000 HD
ATOM     49   S  SUS B   3      27.608  18.478  10.1940  0.00  0.00     0.000 S
ATOM     50   O  SUS B   3      27.682  17.166  10.7040  0.00  0.00     0.000 OA
ATOM     51   O  SUS B   3      26.134  18.951  10.1180  0.00  0.00     0.000 OA
ATOM     52   O  SUS B   3      28.281  18.748   8.9860  0.00  0.00     0.000 OA
ENDBRANCH 42 49
BRANCH 43 53
ATOM     53   O  SUS B   3      31.391  18.531  10.5340  0.00  0.00     0.000 O
ATOM     54   S  SUS B   3      31.965  17.000  10.3650  0.00  0.00     0.000 S
ATOM     55   O  SUS B   3      30.830  16.094  10.4750  0.00  0.00     0.000 OA
ATOM     56   O  SUS B   3      32.588  17.001   9.0540  0.00  0.00     0.000 OA
ATOM     57   O  SUS B   3      32.919  16.791  11.4580  0.00  0.00     0.000 OA
ENDBRANCH 43 53
BRANCH 45 58
ATOM     58   C  SUS B   3      31.968  21.754  14.2610  0.00  0.00     0.000 C
ATOM     59   S  SUS B   3      32.052  24.319  14.2520  0.00  0.00     0.000 S
ATOM     60   O  SUS B   3      31.279  22.973  13.9370  0.00  0.00     0.000 O
ATOM     61   O  SUS B   3      33.016  24.464  13.1780  0.00  0.00     0.000 OA
ATOM     62   O  SUS B   3      30.977  25.271  14.1660  0.00  0.00     0.000 OA
ATOM     63   O  SUS B   3      32.606  24.144  15.5480  0.00  0.00     0.000 OA
ENDBRANCH 45 58
BRANCH 41 64
ATOM     64  O4  IDS B   4      28.734  18.859  14.0980  0.00  0.00     0.000 O
BRANCH 64 68
ATOM     65  C1  IDS B   4      26.946  16.749  16.4690  0.00  0.00     0.000 C
ATOM     66  C2  IDS B   4      26.577  16.722  14.9810  0.00  0.00     0.000 C
ATOM     67  C3  IDS B   4      26.436  18.095  14.3440  0.00  0.00     0.000 C
ATOM     68  C4  IDS B   4      27.496  19.074  14.8120  0.00  0.00     0.000 C
ATOM     69  C5  IDS B   4      27.637  18.935  16.3330  0.00  0.00     0.000 C
ATOM     70  O5  IDS B   4      28.059  17.606  16.6480  0.00  0.00     0.000 O
ATOM     71   O  IDS B   4      25.154  18.583  14.6800  0.00  0.00     0.000 O
ATOM     73  HD  IDS B   4      25.764  17.977  14.5790  0.00  0.00     0.000 HD
BRANCH 66 73
ATOM     73   O  IDS B   4      27.655  16.056  14.2380  0.00  0.00     0.000 O
ATOM     74   S  IDS B   4      27.368  14.578  13.6470  0.00  0.00     0.000 S
ATOM     75   O  IDS B   4      26.972  13.756  14.7710  0.00  0.00     0.000 OA
ATOM     76   O  IDS B   4      28.649  14.228  13.0870  0.00  0.00     0.000 OA
ATOM     77   O  IDS B   4      26.320  14.751  12.6690  0.00  0.00     0.000 OA
ENDBRANCH 66 73
BRANCH 69 78
ATOM     78   C  IDS B   4      28.504  20.003  16.9850  0.00  0.00     0.000 C
ATOM     79   O  IDS B   4      27.982  20.788  17.7750  0.00  0.00     0.000 OA
ATOM     80   O  IDS B   4      29.732  19.979  16.7810  0.00  0.00     0.000 OA
ENDBRANCH 69 78
BRANCH 65 81
ATOM     81  O4  SGN B   5      25.834  17.026  17.2060  0.00  0.00     0.000 O
BRANCH 81 85
ATOM     82  C1  SGN B   5      24.186  16.642  21.0500  0.00  0.00     0.000 C
ATOM     83  C2  SGN B   5      25.641  17.124  20.9600  0.00  0.00     0.000 C
ATOM     84  C3  SGN B   5      25.923  17.646  19.5440  0.00  0.00     0.000 C
ATOM     85  C4  SGN B   5      25.590  16.560  18.5360  0.00  0.00     0.000 C
ATOM     86  C5  SGN B   5      24.121  16.182  18.7050  0.00  0.00     0.000 C
ATOM     87  O5  SGN B   5      23.923  15.684  20.0420  0.00  0.00     0.000 O
ATOM     88   O  SGN B   5      27.274  18.038  19.4370  0.00  0.00     0.000 O
ATOM     90  HD  SGN B   5      26.601  18.574  19.5380  0.00  0.00     0.000 HD
BRANCH 83 92
ATOM     90   N  SGN B   5      25.513  17.884  22.2190  0.00  0.00     0.000 N
ATOM     92  HD  SGN B   5      24.689  17.910  22.4830  0.00  0.00     0.000 HD
ATOM     92   S  SGN B   5      26.586  17.614  23.3720  0.00  0.00     0.000 S
ATOM     93   O  SGN B   5      26.188  18.484  24.4380  0.00  0.00     0.000 OA
ATOM     94   O  SGN B   5      26.596  16.205  23.5680  0.00  0.00     0.000 OA
ATOM     95   O  SGN B   5      27.915  17.994  22.7570  0.00  0.00     0.000 OA
ENDBRANCH 83 92
BRANCH 86 96
ATOM     96   C  SGN B   5      23.641  15.110  17.7490  0.00  0.00     0.000 C
ATOM     97   O  SGN B   5      24.674  14.150  17.5120  0.00  0.00     0.000 O
ATOM     98   S  SGN B   5      24.265  12.611  17.7010  0.00  0.00     0.000 S
ATOM     99   O  SGN B   5      25.424  11.910  17.2030  0.00  0.00     0.000 OA
ATOM    100   O  SGN B   5      23.996  12.408  19.0790  0.00  0.00     0.000 OA
ATOM    101   O  SGN B   5      23.109  12.448  16.8790  0.00  0.00     0.000 OA
ENDBRANCH 86 96
BRANCH 82 102
ATOM    102  O4  IDS B   6      23.289  17.665  20.9780  0.00  0.00     0.000 O
BRANCH 102 106
ATOM    103  C1  IDS B   6      20.524  19.793  22.0220  0.00  0.00     0.000 C
ATOM    104  C2  IDS B   6      21.749  19.595  22.9280  0.00  0.00     0.000 C
ATOM    105  C3  IDS B   6      22.197  18.156  23.0990  0.00  0.00     0.000 C
ATOM    106  C4  IDS B   6      22.135  17.365  21.8040  0.00  0.00     0.000 C
ATOM    107  C5  IDS B   6      20.835  17.688  21.0620  0.00  0.00     0.000 C
ATOM    108  O5  IDS B   6      20.700  19.088  20.8080  0.00  0.00     0.000 O
ATOM    109   O  IDS B   6      21.385  17.556  24.0950  0.00  0.00     0.000 O
ATOM    111  HD  IDS B   6      20.666  18.040  24.0970  0.00  0.00     0.000 HD
BRANCH 104 111
ATOM    111   O  IDS B   6      22.901  20.292  22.3360  0.00  0.00     0.000 O
ATOM    112   S  IDS B   6      23.548  21.506  23.1550  0.00  0.00     0.000 S
ATOM    113   O  IDS B   6      22.457  22.452  23.3320  0.00  0.00     0.000 OA
ATOM    114   O  IDS B   6      24.109  20.977  24.4040  0.00  0.00     0.000 OA
ATOM    115   O  IDS B   6      24.544  21.931  22.1950  0.00  0.00     0.000 OA
ENDBRANCH 104 111
BRANCH 107 116
ATOM    116   C  IDS B   6      20.799  16.918  19.7480  0.00  0.00     0.000 C
ATOM    117   O  IDS B   6      20.894  17.566  18.7370  0.00  0.00     0.000 OA
ATOM    118   O  IDS B   6      20.670  15.704  19.7270  0.00  0.00     0.000 OA
ENDBRANCH 107 116
BRANCH 103 119
ATOM    119  O4  SGN B   7      19.473  19.535  22.8420  0.00  0.00     0.000 O
BRANCH 119 123
ATOM    120  C1  SGN B   7      15.534  20.902  23.1650  0.00  0.00     0.000 C
ATOM    121  C2  SGN B   7      15.784  19.642  22.3150  0.00  0.00     0.000 C
ATOM    122  C3  SGN B   7      17.167  19.052  22.6220  0.00  0.00     0.000 C
ATOM    123  C4  SGN B   7      18.230  20.126  22.4590  0.00  0.00     0.000 C
ATOM    124  C5  SGN B   7      17.887  21.339  23.3390  0.00  0.00     0.000 C
ATOM    125  O5  SGN B   7      16.579  21.861  23.0160  0.00  0.00     0.000 O
ATOM    126   O  SGN B   7      17.406  17.944  21.7460  0.00  0.00     0.000 O
ATOM    128  HD  SGN B   7      16.847  18.526  22.0610  0.00  0.00     0.000 HD
BRANCH 121 130
ATOM    128   N  SGN B   7      14.329  19.515  22.4340  0.00  0.00     0.000 N
ATOM    130  HD  SGN B   7      14.225  19.908  21.6690  0.00  0.00     0.000 HD
ATOM    130   S  SGN B   7      13.483  18.468  21.5500  0.00  0.00     0.000 S
ATOM    131   O  SGN B   7      14.151  17.221  21.7100  0.00  0.00     0.000 OA
ATOM    132   O  SGN B   7      12.114  18.597  21.8950  0.00  0.00     0.000 OA
ATOM    133   O  SGN B   7      13.600  19.134  20.1370  0.00  0.00     0.000 OA
ENDBRANCH 121 130
BRANCH 124 134
ATOM    134   C  SGN B   7      18.818  22.501  23.1610  0.00  0.00     0.000 C
ATOM    135   O  SGN B   7      18.039  23.670  22.8560  0.00  0.00     0.000 O
ATOM    136   S  SGN B   7      18.818  25.032  22.7820  0.00  0.00     0.000 S
ATOM    137   O  SGN B   7      17.859  26.027  22.3650  0.00  0.00     0.000 OA
ATOM    138   O  SGN B   7      19.867  24.816  21.8110  0.00  0.00     0.000 OA
ATOM    139   O  SGN B   7      19.288  25.198  24.1490  0.00  0.00     0.000 OA
ENDBRANCH 124 134
BRANCH 120 140
ATOM    140  O4  IDS B   8      15.365  20.981  24.4900  0.00  0.00     0.000 O
BRANCH 140 144
ATOM    141  C1  IDS B   8      15.206  20.615  28.0680  0.00  0.00     0.000 C
ATOM    142  C2  IDS B   8      14.370  19.696  27.1320  0.00  0.00     0.000 C
ATOM    143  C3  IDS B   8      13.593  20.476  26.0560  0.00  0.00     0.000 C
ATOM    144  C4  IDS B   8      14.444  21.571  25.4150  0.00  0.00     0.000 C
ATOM    145  C5  IDS B   8      15.208  22.349  26.4970  0.00  0.00     0.000 C
ATOM    146  O5  IDS B   8      16.018  21.488  27.2920  0.00  0.00     0.000 O
BRANCH 142 147
ATOM    147   O  IDS B   8      15.277  18.755  26.4240  0.00  0.00     0.000 O
ATOM    148   S  IDS B   8      15.329  17.183  26.8230  0.00  0.00     0.000 S
ATOM    149   O  IDS B   8      14.706  17.040  28.1190  0.00  0.00     0.000 OA
ATOM    150   O  IDS B   8      14.604  16.493  25.7720  0.00  0.00     0.000 OA
ATOM    151   O  IDS B   8      16.739  16.845  26.8590  0.00  0.00     0.000 OA
ENDBRANCH 142 147
BRANCH 145 152
ATOM    152   C  IDS B   8      16.147  23.386  25.9150  0.00  0.00     0.000 C
ATOM    153   O  IDS B   8      15.706  24.246  25.1610  0.00  0.00     0.000 OA
ATOM    154   O  IDS B   8      17.327  23.367  26.2190  0.00  0.00     0.000 OA
ENDBRANCH 145 152
ENDBRANCH 140 144
ENDBRANCH 120 140
ENDBRANCH 119 123
ENDBRANCH 103 119
ENDBRANCH 102 106
ENDBRANCH 82 102
ENDBRANCH 81 85
ENDBRANCH 65 81
ENDBRANCH 64 68
ENDBRANCH 41 64
ENDBRANCH 40 44
ENDBRANCH 24 40
ENDBRANCH 23 27
ENDBRANCH 1 23
TORSDOF 31
ENDMDL
MODEL 86
REMARK VINA RESULT:      -6.6      7.055     12.630
ROOT
ATOM      1  C1  SGN B   1      40.527  25.307  17.2710  0.00  0.00     0.000 C
ATOM      2  C2  SGN B   1      41.567  25.761  18.3080  0.00  0.00     0.000 C
ATOM      3  C3  SGN B   1      40.970  25.741  19.7200  0.00  0.00     0.000 C
ATOM      4  C4  SGN B   1      39.706  26.594  19.7680  0.00  0.00     0.000 C
ATOM      5  C5  SGN B   1      38.782  26.183  18.6230  0.00  0.00     0.000 C
ATOM      6  O5  SGN B   1      39.493  26.277  17.3740  0.00  0.00     0.000 O
ATOM      7   O  SGN B   1      41.920  26.204  20.6710  0.00  0.00     0.000 O
ATOM      9  HD  SGN B   1      41.832  26.897  20.1600  0.00  0.00     0.000 HD
ATOM      9   O  SGN B   1      39.057  26.403  21.0120  0.00  0.00     0.000 O
ATOM     11  HD  SGN B   1      38.969  27.096  20.5000  0.00  0.00     0.000 HD
ENDROOT
BRANCH 2 13
ATOM     11   N  SGN B   1      42.778  26.032  17.5100  0.00  0.00     0.000 N
ATOM     13  HD  SGN B   1      42.345  25.287  17.4150  0.00  0.00     0.000 HD
ATOM     13   S  SGN B   1      43.732  24.855  16.9700  0.00  0.00     0.000 S
ATOM     14   O  SGN B   1      43.204  23.597  17.3300  0.00  0.00     0.000 OA
ATOM     15   O  SGN B   1      44.044  25.118  15.6060  0.00  0.00     0.000 OA
ATOM     16   O  SGN B   1      45.003  25.197  17.8070  0.00  0.00     0.000 OA
ENDBRANCH 2 13
BRANCH 5 17
ATOM     17   C  SGN B   1      37.542  27.033  18.5000  0.00  0.00     0.000 C
ATOM     18   O  SGN B   1      36.629  26.772  19.5850  0.00  0.00     0.000 O
ATOM     19   S  SGN B   1      35.092  26.593  19.1800  0.00  0.00     0.000 S
ATOM     20   O  SGN B   1      34.373  26.582  20.4370  0.00  0.00     0.000 OA
ATOM     21   O  SGN B   1      34.807  27.748  18.3610  0.00  0.00     0.000 OA
ATOM     22   O  SGN B   1      35.033  25.337  18.4670  0.00  0.00     0.000 OA
ENDBRANCH 5 17
BRANCH 1 23
ATOM     23  O4  IDS B   2      40.071  24.176  16.6610  0.00  0.00     0.000 O
BRANCH 23 27
ATOM     24  C1  IDS B   2      37.104  22.133  18.7240  0.00  0.00     0.000 C
ATOM     25  C2  IDS B   2      38.555  21.774  19.1140  0.00  0.00     0.000 C
ATOM     26  C3  IDS B   2      39.542  22.777  18.5240  0.00  0.00     0.000 C
ATOM     27  C4  IDS B   2      39.415  22.940  17.0150  0.00  0.00     0.000 C
ATOM     28  C5  IDS B   2      37.931  22.865  16.6010  0.00  0.00     0.000 C
ATOM     29  O5  IDS B   2      37.082  23.141  17.7040  0.00  0.00     0.000 O
ATOM     30   O  IDS B   2      40.870  22.345  18.7980  0.00  0.00     0.000 O
ATOM     32  HD  IDS B   2      41.142  21.718  18.2660  0.00  0.00     0.000 HD
BRANCH 25 32
ATOM     32   O  IDS B   2      38.754  21.761  20.5840  0.00  0.00     0.000 O
ATOM     33   S  IDS B   2      38.871  20.352  21.4350  0.00  0.00     0.000 S
ATOM     34   O  IDS B   2      38.832  20.723  22.8400  0.00  0.00     0.000 OA
ATOM     35   O  IDS B   2      37.759  19.480  21.0830  0.00  0.00     0.000 OA
ATOM     36   O  IDS B   2      40.150  19.784  21.0750  0.00  0.00     0.000 OA
ENDBRANCH 25 32
BRANCH 28 37
ATOM     37   C  IDS B   2      37.472  23.727  15.4070  0.00  0.00     0.000 C
ATOM     38   O  IDS B   2      36.845  24.703  15.7490  0.00  0.00     0.000 OA
ATOM     39   O  IDS B   2      37.738  23.542  14.1940  0.00  0.00     0.000 OA
ENDBRANCH 28 37
BRANCH 24 40
ATOM     40  O4  SUS B   3      36.089  21.325  19.0940  0.00  0.00     0.000 O
BRANCH 40 44
ATOM     41  C1  SUS B   3      32.038  22.179  19.7350  0.00  0.00     0.000 C
ATOM     42  C2  SUS B   3      32.578  22.358  18.3020  0.00  0.00     0.000 C
ATOM     43  C3  SUS B   3      33.877  21.568  18.1520  0.00  0.00     0.000 C
ATOM     44  C4  SUS B   3      34.847  22.007  19.2370  0.00  0.00     0.000 C
ATOM     45  C5  SUS B   3      34.242  21.696  20.5910  0.00  0.00     0.000 C
ATOM     46  O5  SUS B   3      33.029  22.464  20.7280  0.00  0.00     0.000 O
BRANCH 42 49
ATOM     47   N  SUS B   3      31.434  22.028  17.4350  0.00  0.00     0.000 N
ATOM     49  HD  SUS B   3      31.538  21.360  16.8950  0.00  0.00     0.000 HD
ATOM     49   S  SUS B   3      30.924  23.284  16.5810  0.00  0.00     0.000 S
ATOM     50   O  SUS B   3      31.980  23.792  15.7980  0.00  0.00     0.000 OA
ATOM     51   O  SUS B   3      29.916  22.504  15.6990  0.00  0.00     0.000 OA
ATOM     52   O  SUS B   3      30.249  24.184  17.4300  0.00  0.00     0.000 OA
ENDBRANCH 42 49
BRANCH 43 53
ATOM     53   O  SUS B   3      34.441  21.870  16.8220  0.00  0.00     0.000 O
ATOM     54   S  SUS B   3      34.418  20.664  15.7060  0.00  0.00     0.000 S
ATOM     55   O  SUS B   3      33.033  20.473  15.2980  0.00  0.00     0.000 OA
ATOM     56   O  SUS B   3      35.279  21.151  14.6430  0.00  0.00     0.000 OA
ATOM     57   O  SUS B   3      34.943  19.470  16.3750  0.00  0.00     0.000 OA
ENDBRANCH 43 53
BRANCH 45 58
ATOM     58   C  SUS B   3      35.193  22.013  21.7230  0.00  0.00     0.000 C
ATOM     59   S  SUS B   3      36.181  23.966  23.0620  0.00  0.00     0.000 S
ATOM     60   O  SUS B   3      35.101  23.410  22.0460  0.00  0.00     0.000 O
ATOM     61   O  SUS B   3      37.391  24.127  22.2790  0.00  0.00     0.000 OA
ATOM     62   O  SUS B   3      35.584  25.223  23.4260  0.00  0.00     0.000 OA
ATOM     63   O  SUS B   3      36.254  23.004  24.1040  0.00  0.00     0.000 OA
ENDBRANCH 45 58
BRANCH 41 64
ATOM     64  O4  IDS B   4      31.370  20.995  19.9310  0.00  0.00     0.000 O
BRANCH 64 68
ATOM     65  C1  IDS B   4      28.487  18.831  20.4580  0.00  0.00     0.000 C
ATOM     66  C2  IDS B   4      28.411  19.988  19.4530  0.00  0.00     0.000 C
ATOM     67  C3  IDS B   4      28.956  21.307  19.9740  0.00  0.00     0.000 C
ATOM     68  C4  IDS B   4      30.221  21.141  20.7940  0.00  0.00     0.000 C
ATOM     69  C5  IDS B   4      30.019  19.955  21.7470  0.00  0.00     0.000 C
ATOM     70  O5  IDS B   4      29.801  18.767  20.9810  0.00  0.00     0.000 O
ATOM     71   O  IDS B   4      27.945  21.894  20.7680  0.00  0.00     0.000 O
ATOM     73  HD  IDS B   4      28.264  21.350  20.1740  0.00  0.00     0.000 HD
BRANCH 66 73
ATOM     73   O  IDS B   4      29.238  19.656  18.2860  0.00  0.00     0.000 O
ATOM     74   S  IDS B   4      28.491  19.128  16.9520  0.00  0.00     0.000 S
ATOM     75   O  IDS B   4      27.719  17.969  17.3460  0.00  0.00     0.000 OA
ATOM     76   O  IDS B   4      29.604  18.826  16.0880  0.00  0.00     0.000 OA
ATOM     77   O  IDS B   4      27.675  20.232  16.5050  0.00  0.00     0.000 OA
ENDBRANCH 66 73
BRANCH 69 78
ATOM     78   C  IDS B   4      31.115  19.793  22.7920  0.00  0.00     0.000 C
ATOM     79   O  IDS B   4      31.795  20.774  23.0910  0.00  0.00     0.000 OA
ATOM     80   O  IDS B   4      31.216  18.704  23.3850  0.00  0.00     0.000 OA
ENDBRANCH 69 78
BRANCH 65 81
ATOM     81  O4  SGN B   5      27.472  18.945  21.3590  0.00  0.00     0.000 O
BRANCH 81 85
ATOM     82  C1  SGN B   5      24.918  16.705  23.8270  0.00  0.00     0.000 C
ATOM     83  C2  SGN B   5      26.273  17.121  24.4200  0.00  0.00     0.000 C
ATOM     84  C3  SGN B   5      26.855  18.283  23.6030  0.00  0.00     0.000 C
ATOM     85  C4  SGN B   5      26.942  17.874  22.1430  0.00  0.00     0.000 C
ATOM     86  C5  SGN B   5      25.539  17.508  21.6630  0.00  0.00     0.000 C
ATOM     87  O5  SGN B   5      25.056  16.404  22.4510  0.00  0.00     0.000 O
ATOM     88   O  SGN B   5      28.126  18.633  24.1060  0.00  0.00     0.000 O
ATOM     90  HD  SGN B   5      27.389  19.063  24.2580  0.00  0.00     0.000 HD
BRANCH 83 92
ATOM     90   N  SGN B   5      25.723  17.141  25.7890  0.00  0.00     0.000 N
ATOM     92  HD  SGN B   5      24.861  17.061  25.7790  0.00  0.00     0.000 HD
ATOM     92   S  SGN B   5      26.470  16.282  26.9110  0.00  0.00     0.000 S
ATOM     93   O  SGN B   5      25.701  16.506  28.0990  0.00  0.00     0.000 OA
ATOM     94   O  SGN B   5      26.590  14.970  26.3760  0.00  0.00     0.000 OA
ATOM     95   O  SGN B   5      27.862  16.870  26.9830  0.00  0.00     0.000 OA
ENDBRANCH 83 92
BRANCH 86 96
ATOM     96   C  SGN B   5      25.470  17.089  20.2090  0.00  0.00     0.000 C
ATOM     97   O  SGN B   5      25.649  15.676  20.0850  0.00  0.00     0.000 O
ATOM     98   S  SGN B   5      24.547  14.899  19.2150  0.00  0.00     0.000 S
ATOM     99   O  SGN B   5      25.104  13.572  19.1100  0.00  0.00     0.000 OA
ATOM    100   O  SGN B   5      23.319  14.972  19.9210  0.00  0.00     0.000 OA
ATOM    101   O  SGN B   5      24.517  15.600  17.9730  0.00  0.00     0.000 OA
ENDBRANCH 86 96
BRANCH 82 102
ATOM    102  O4  IDS B   6      23.952  17.649  24.0120  0.00  0.00     0.000 O
BRANCH 102 106
ATOM    103  C1  IDS B   6      20.772  18.844  25.3210  0.00  0.00     0.000 C
ATOM    104  C2  IDS B   6      21.678  17.935  26.1670  0.00  0.00     0.000 C
ATOM    105  C3  IDS B   6      22.219  16.716  25.4460  0.00  0.00     0.000 C
ATOM    106  C4  IDS B   6      22.646  17.019  24.0210  0.00  0.00     0.000 C
ATOM    107  C5  IDS B   6      21.604  17.917  23.3480  0.00  0.00     0.000 C
ATOM    108  O5  IDS B   6      21.390  19.125  24.0800  0.00  0.00     0.000 O
ATOM    109   O  IDS B   6      21.219  15.710  25.4690  0.00  0.00     0.000 O
ATOM    111  HD  IDS B   6      20.482  16.152  25.5810  0.00  0.00     0.000 HD
BRANCH 104 111
ATOM    111   O  IDS B   6      22.865  18.698  26.5840  0.00  0.00     0.000 O
ATOM    112   S  IDS B   6      22.960  19.166  28.1120  0.00  0.00     0.000 S
ATOM    113   O  IDS B   6      21.773  19.980  28.3200  0.00  0.00     0.000 OA
ATOM    114   O  IDS B   6      23.040  17.971  28.9600  0.00  0.00     0.000 OA
ATOM    115   O  IDS B   6      24.190  19.926  28.0470  0.00  0.00     0.000 OA
ENDBRANCH 104 111
BRANCH 107 116
ATOM    116   C  IDS B   6      22.059  18.245  21.9320  0.00  0.00     0.000 C
ATOM    117   O  IDS B   6      22.507  19.348  21.7480  0.00  0.00     0.000 OA
ATOM    118   O  IDS B   6      21.964  17.428  21.0290  0.00  0.00     0.000 OA
ENDBRANCH 107 116
BRANCH 103 119
ATOM    119  O4  SGN B   7      19.559  18.236  25.3850  0.00  0.00     0.000 O
BRANCH 119 123
ATOM    120  C1  SGN B   7      15.554  19.441  25.3320  0.00  0.00     0.000 C
ATOM    121  C2  SGN B   7      16.386  19.673  24.0570  0.00  0.00     0.000 C
ATOM    122  C3  SGN B   7      17.670  18.834  24.0910  0.00  0.00     0.000 C
ATOM    123  C4  SGN B   7      18.428  19.109  25.3790  0.00  0.00     0.000 C
ATOM    124  C5  SGN B   7      17.514  18.855  26.5890  0.00  0.00     0.000 C
ATOM    125  O5  SGN B   7      16.320  19.666  26.5150  0.00  0.00     0.000 O
ATOM    126   O  SGN B   7      18.463  19.148  22.9410  0.00  0.00     0.000 O
ATOM    128  HD  SGN B   7      17.706  19.222  23.3550  0.00  0.00     0.000 HD
BRANCH 121 130
ATOM    128   N  SGN B   7      15.161  19.553  23.2620  0.00  0.00     0.000 N
ATOM    130  HD  SGN B   7      14.857  20.287  23.6060  0.00  0.00     0.000 HD
ATOM    130   S  SGN B   7      14.862  20.501  21.9960  0.00  0.00     0.000 S
ATOM    131   O  SGN B   7      16.036  20.435  21.1950  0.00  0.00     0.000 OA
ATOM    132   O  SGN B   7      13.602  20.138  21.4540  0.00  0.00     0.000 OA
ATOM    133   O  SGN B   7      14.601  21.865  22.7220  0.00  0.00     0.000 OA
ENDBRANCH 121 130
BRANCH 124 134
ATOM    134   C  SGN B   7      18.137  19.211  27.9060  0.00  0.00     0.000 C
ATOM    135   O  SGN B   7      17.217  20.035  28.6410  0.00  0.00     0.000 O
ATOM    136   S  SGN B   7      17.620  20.390  30.1170  0.00  0.00     0.000 S
ATOM    137   O  SGN B   7      16.610  21.298  30.6070  0.00  0.00     0.000 OA
ATOM    138   O  SGN B   7      18.926  21.000  30.0160  0.00  0.00     0.000 OA
ATOM    139   O  SGN B   7      17.611  19.088  30.7660  0.00  0.00     0.000 OA
ENDBRANCH 124 134
BRANCH 120 140
ATOM    140  O4  IDS B   8      14.915  18.327  25.7060  0.00  0.00     0.000 O
BRANCH 140 144
ATOM    141  C1  IDS B   8      12.454  16.632  27.7150  0.00  0.00     0.000 C
ATOM    142  C2  IDS B   8      13.723  15.888  27.2070  0.00  0.00     0.000 C
ATOM    143  C3  IDS B   8      13.983  16.096  25.7040  0.00  0.00     0.000 C
ATOM    144  C4  IDS B   8      13.787  17.551  25.2840  0.00  0.00     0.000 C
ATOM    145  C5  IDS B   8      12.498  18.112  25.9030  0.00  0.00     0.000 C
ATOM    146  O5  IDS B   8      12.503  17.999  27.3240  0.00  0.00     0.000 O
BRANCH 142 147
ATOM    147   O  IDS B   8      14.917  16.394  27.9340  0.00  0.00     0.000 O
ATOM    148   S  IDS B   8      15.636  15.502  29.0830  0.00  0.00     0.000 S
ATOM    149   O  IDS B   8      14.713  14.459  29.4690  0.00  0.00     0.000 OA
ATOM    150   O  IDS B   8      16.845  14.983  28.4700  0.00  0.00     0.000 OA
ATOM    151   O  IDS B   8      15.900  16.423  30.1720  0.00  0.00     0.000 OA
ENDBRANCH 142 147
BRANCH 145 152
ATOM    152   C  IDS B   8      12.299  19.584  25.6030  0.00  0.00     0.000 C
ATOM    153   O  IDS B   8      12.266  20.390  26.5260  0.00  0.00     0.000 OA
ATOM    154   O  IDS B   8      12.195  19.954  24.4480  0.00  0.00     0.000 OA
ENDBRANCH 145 152
ENDBRANCH 140 144
ENDBRANCH 120 140
ENDBRANCH 119 123
ENDBRANCH 103 119
ENDBRANCH 102 106
ENDBRANCH 82 102
ENDBRANCH 81 85
ENDBRANCH 65 81
ENDBRANCH 64 68
ENDBRANCH 41 64
ENDBRANCH 40 44
ENDBRANCH 24 40
ENDBRANCH 23 27
ENDBRANCH 1 23
TORSDOF 31
ENDMDL
MODEL 87
REMARK VINA RESULT:      -6.6      8.323     12.580
ROOT
ATOM      1  C1  SGN B   1      28.221  10.813  14.3960  0.00  0.00     0.000 C
ATOM      2  C2  SGN B   1      29.543  10.419  15.0740  0.00  0.00     0.000 C
ATOM      3  C3  SGN B   1      30.210   9.257  14.3290  0.00  0.00     0.000 C
ATOM      4  C4  SGN B   1      29.248   8.078  14.2250  0.00  0.00     0.000 C
ATOM      5  C5  SGN B   1      27.911   8.571  13.6760  0.00  0.00     0.000 C
ATOM      6  O5  SGN B   1      27.419   9.645  14.5010  0.00  0.00     0.000 O
ATOM      7   O  SGN B   1      31.410   8.865  14.9850  0.00  0.00     0.000 O
ATOM      9  HD  SGN B   1      30.818   8.719  15.6000  0.00  0.00     0.000 HD
ATOM      9   O  SGN B   1      29.797   7.097  13.3640  0.00  0.00     0.000 O
ATOM     11  HD  SGN B   1      29.205   6.951  13.9780  0.00  0.00     0.000 HD
ENDROOT
BRANCH 2 13
ATOM     11   N  SGN B   1      29.372  11.468  16.0960  0.00  0.00     0.000 N
ATOM     13  HD  SGN B   1      29.571  11.678  15.2800  0.00  0.00     0.000 HD
ATOM     13   S  SGN B   1      30.138  12.881  16.0140  0.00  0.00     0.000 S
ATOM     14   O  SGN B   1      30.908  12.948  14.8340  0.00  0.00     0.000 OA
ATOM     15   O  SGN B   1      29.203  13.917  16.2990  0.00  0.00     0.000 OA
ATOM     16   O  SGN B   1      31.043  12.719  17.2740  0.00  0.00     0.000 OA
ENDBRANCH 2 13
BRANCH 5 17
ATOM     17   C  SGN B   1      26.838   7.512  13.6300  0.00  0.00     0.000 C
ATOM     18   O  SGN B   1      25.816   7.856  12.6730  0.00  0.00     0.000 O
ATOM     19   S  SGN B   1      24.305   7.661  13.1600  0.00  0.00     0.000 S
ATOM     20   O  SGN B   1      23.501   7.842  11.9710  0.00  0.00     0.000 OA
ATOM     21   O  SGN B   1      24.274   6.314  13.6810  0.00  0.00     0.000 OA
ATOM     22   O  SGN B   1      24.096   8.684  14.1620  0.00  0.00     0.000 OA
ENDBRANCH 5 17
BRANCH 1 23
ATOM     23  O4  IDS B   2      27.740  11.645  13.4280  0.00  0.00     0.000 O
BRANCH 23 27
ATOM     24  C1  IDS B   2      25.707  15.093  14.5260  0.00  0.00     0.000 C
ATOM     25  C2  IDS B   2      24.905  13.778  14.6480  0.00  0.00     0.000 C
ATOM     26  C3  IDS B   2      25.821  12.565  14.5110  0.00  0.00     0.000 C
ATOM     27  C4  IDS B   2      26.653  12.573  13.2350  0.00  0.00     0.000 C
ATOM     28  C5  IDS B   2      27.094  14.013  12.9030  0.00  0.00     0.000 C
ATOM     29  O5  IDS B   2      27.037  14.840  14.0550  0.00  0.00     0.000 O
ATOM     30   O  IDS B   2      25.033  11.381  14.5030  0.00  0.00     0.000 O
ATOM     32  HD  IDS B   2      24.661  11.224  13.7370  0.00  0.00     0.000 HD
BRANCH 25 32
ATOM     32   O  IDS B   2      24.205  13.666  15.9510  0.00  0.00     0.000 O
ATOM     33   S  IDS B   2      24.998  13.233  17.3320  0.00  0.00     0.000 S
ATOM     34   O  IDS B   2      23.970  13.011  18.3360  0.00  0.00     0.000 OA
ATOM     35   O  IDS B   2      25.772  12.025  17.0870  0.00  0.00     0.000 OA
ATOM     36   O  IDS B   2      25.831  14.363  17.6730  0.00  0.00     0.000 OA
ENDBRANCH 25 32
BRANCH 28 37
ATOM     37   C  IDS B   2      28.470  14.208  12.2330  0.00  0.00     0.000 C
ATOM     38   O  IDS B   2      28.470  13.896  11.0660  0.00  0.00     0.000 OA
ATOM     39   O  IDS B   2      29.502  14.696  12.7560  0.00  0.00     0.000 OA
ENDBRANCH 28 37
BRANCH 24 40
ATOM     40  O4  SUS B   3      25.063  16.278  14.5530  0.00  0.00     0.000 O
BRANCH 40 44
ATOM     41  C1  SUS B   3      25.740  19.677  16.9070  0.00  0.00     0.000 C
ATOM     42  C2  SUS B   3      26.869  19.246  15.9490  0.00  0.00     0.000 C
ATOM     43  C3  SUS B   3      26.292  18.336  14.8680  0.00  0.00     0.000 C
ATOM     44  C4  SUS B   3      25.570  17.175  15.5350  0.00  0.00     0.000 C
ATOM     45  C5  SUS B   3      24.432  17.721  16.3720  0.00  0.00     0.000 C
ATOM     46  O5  SUS B   3      24.992  18.561  17.4020  0.00  0.00     0.000 O
BRANCH 42 49
ATOM     47   N  SUS B   3      27.524  20.498  15.5330  0.00  0.00     0.000 N
ATOM     49  HD  SUS B   3      27.525  20.670  14.6840  0.00  0.00     0.000 HD
ATOM     49   S  SUS B   3      29.030  20.614  16.0670  0.00  0.00     0.000 S
ATOM     50   O  SUS B   3      29.785  19.512  15.6170  0.00  0.00     0.000 OA
ATOM     51   O  SUS B   3      29.403  21.893  15.2730  0.00  0.00     0.000 OA
ATOM     52   O  SUS B   3      29.016  20.874  17.4510  0.00  0.00     0.000 OA
ENDBRANCH 42 49
BRANCH 43 53
ATOM     53   O  SUS B   3      27.413  17.828  14.0540  0.00  0.00     0.000 O
ATOM     54   S  SUS B   3      27.538  18.393  12.5150  0.00  0.00     0.000 S
ATOM     55   O  SUS B   3      27.959  19.784  12.5940  0.00  0.00     0.000 OA
ATOM     56   O  SUS B   3      28.519  17.518  11.8980  0.00  0.00     0.000 OA
ATOM     57   O  SUS B   3      26.203  18.275  11.9200  0.00  0.00     0.000 OA
ENDBRANCH 43 53
BRANCH 45 58
ATOM     58   C  SUS B   3      23.602  16.617  16.9900  0.00  0.00     0.000 C
ATOM     59   S  SUS B   3      21.898  16.154  18.8530  0.00  0.00     0.000 S
ATOM     60   O  SUS B   3      22.695  17.184  17.9500  0.00  0.00     0.000 O
ATOM     61   O  SUS B   3      22.847  15.720  19.8600  0.00  0.00     0.000 OA
ATOM     62   O  SUS B   3      20.871  17.007  19.3880  0.00  0.00     0.000 OA
ATOM     63   O  SUS B   3      21.447  15.141  17.9660  0.00  0.00     0.000 OA
ENDBRANCH 45 58
BRANCH 41 64
ATOM     64  O4  IDS B   4      24.965  20.702  16.4230  0.00  0.00     0.000 O
BRANCH 64 68
ATOM     65  C1  IDS B   4      23.002  23.767  16.2430  0.00  0.00     0.000 C
ATOM     66  C2  IDS B   4      24.524  23.811  16.0500  0.00  0.00     0.000 C
ATOM     67  C3  IDS B   4      25.311  23.021  17.0820  0.00  0.00     0.000 C
ATOM     68  C4  IDS B   4      24.662  21.694  17.4290  0.00  0.00     0.000 C
ATOM     69  C5  IDS B   4      23.158  21.933  17.6170  0.00  0.00     0.000 C
ATOM     70  O5  IDS B   4      22.601  22.417  16.3920  0.00  0.00     0.000 O
ATOM     71   O  IDS B   4      25.407  23.823  18.2410  0.00  0.00     0.000 O
ATOM     73  HD  IDS B   4      25.267  23.667  17.4000  0.00  0.00     0.000 HD
BRANCH 66 73
ATOM     73   O  IDS B   4      24.854  23.202  14.7540  0.00  0.00     0.000 O
ATOM     74   S  IDS B   4      25.443  24.162  13.5930  0.00  0.00     0.000 S
ATOM     75   O  IDS B   4      24.470  25.216  13.4010  0.00  0.00     0.000 OA
ATOM     76   O  IDS B   4      25.549  23.251  12.4810  0.00  0.00     0.000 OA
ATOM     77   O  IDS B   4      26.710  24.639  14.0940  0.00  0.00     0.000 OA
ENDBRANCH 66 73
BRANCH 69 78
ATOM     78   C  IDS B   4      22.397  20.742  18.1830  0.00  0.00     0.000 C
ATOM     79   O  IDS B   4      21.519  20.220  17.4970  0.00  0.00     0.000 OA
ATOM     80   O  IDS B   4      22.759  20.269  19.2760  0.00  0.00     0.000 OA
ENDBRANCH 69 78
BRANCH 65 81
ATOM     81  O4  SGN B   5      22.647  24.626  17.2380  0.00  0.00     0.000 O
BRANCH 81 85
ATOM     82  C1  SGN B   5      19.749  27.482  18.2790  0.00  0.00     0.000 C
ATOM     83  C2  SGN B   5      19.523  26.046  18.7750  0.00  0.00     0.000 C
ATOM     84  C3  SGN B   5      20.846  25.270  18.7210  0.00  0.00     0.000 C
ATOM     85  C4  SGN B   5      21.407  25.334  17.3110  0.00  0.00     0.000 C
ATOM     86  C5  SGN B   5      21.610  26.801  16.9420  0.00  0.00     0.000 C
ATOM     87  O5  SGN B   5      20.335  27.470  16.9910  0.00  0.00     0.000 O
ATOM     88   O  SGN B   5      20.635  23.934  19.1210  0.00  0.00     0.000 O
ATOM     90  HD  SGN B   5      20.980  24.557  19.6140  0.00  0.00     0.000 HD
BRANCH 83 92
ATOM     90   N  SGN B   5      18.099  26.411  18.9120  0.00  0.00     0.000 N
ATOM     92  HD  SGN B   5      17.675  26.292  18.1660  0.00  0.00     0.000 HD
ATOM     92   S  SGN B   5      17.321  25.921  20.2190  0.00  0.00     0.000 S
ATOM     93   O  SGN B   5      15.990  26.422  20.0470  0.00  0.00     0.000 OA
ATOM     94   O  SGN B   5      17.550  24.520  20.3020  0.00  0.00     0.000 OA
ATOM     95   O  SGN B   5      18.058  26.569  21.3710  0.00  0.00     0.000 OA
ENDBRANCH 83 92
BRANCH 86 96
ATOM     96   C  SGN B   5      22.180  27.018  15.5550  0.00  0.00     0.000 C
ATOM     97   O  SGN B   5      21.314  26.463  14.5630  0.00  0.00     0.000 O
ATOM     98   S  SGN B   5      20.916  27.433  13.3500  0.00  0.00     0.000 S
ATOM     99   O  SGN B   5      20.230  26.544  12.4430  0.00  0.00     0.000 OA
ATOM    100   O  SGN B   5      20.111  28.473  13.8820  0.00  0.00     0.000 OA
ATOM    101   O  SGN B   5      22.166  27.901  12.8450  0.00  0.00     0.000 OA
ENDBRANCH 86 96
BRANCH 82 102
ATOM    102  O4  IDS B   6      20.507  28.221  19.1380  0.00  0.00     0.000 O
BRANCH 102 106
ATOM    103  C1  IDS B   6      21.309  30.937  21.4270  0.00  0.00     0.000 C
ATOM    104  C2  IDS B   6      20.096  30.028  21.6800  0.00  0.00     0.000 C
ATOM    105  C3  IDS B   6      19.208  29.790  20.4730  0.00  0.00     0.000 C
ATOM    106  C4  IDS B   6      20.001  29.579  19.1950  0.00  0.00     0.000 C
ATOM    107  C5  IDS B   6      21.148  30.591  19.1250  0.00  0.00     0.000 C
ATOM    108  O5  IDS B   6      22.000  30.511  20.2680  0.00  0.00     0.000 O
ATOM    109   O  IDS B   6      18.331  30.896  20.3450  0.00  0.00     0.000 O
ATOM    111  HD  IDS B   6      18.741  31.537  20.7600  0.00  0.00     0.000 HD
BRANCH 104 111
ATOM    111   O  IDS B   6      20.571  28.696  22.0820  0.00  0.00     0.000 O
ATOM    112   S  IDS B   6      20.463  28.293  23.6280  0.00  0.00     0.000 S
ATOM    113   O  IDS B   6      21.239  29.306  24.3250  0.00  0.00     0.000 OA
ATOM    114   O  IDS B   6      19.044  28.246  23.9970  0.00  0.00     0.000 OA
ATOM    115   O  IDS B   6      21.102  26.996  23.5760  0.00  0.00     0.000 OA
ENDBRANCH 104 111
BRANCH 107 116
ATOM    116   C  IDS B   6      21.958  30.348  17.8580  0.00  0.00     0.000 C
ATOM    117   O  IDS B   6      23.087  29.955  18.0040  0.00  0.00     0.000 OA
ATOM    118   O  IDS B   6      21.483  30.552  16.7510  0.00  0.00     0.000 OA
ENDBRANCH 107 116
BRANCH 103 119
ATOM    119  O4  SGN B   7      20.797  32.191  21.5230  0.00  0.00     0.000 O
BRANCH 119 123
ATOM    120  C1  SGN B   7      22.103  35.908  22.9250  0.00  0.00     0.000 C
ATOM    121  C2  SGN B   7      22.708  35.390  21.6070  0.00  0.00     0.000 C
ATOM    122  C3  SGN B   7      21.855  34.250  21.0350  0.00  0.00     0.000 C
ATOM    123  C4  SGN B   7      21.665  33.173  22.0890  0.00  0.00     0.000 C
ATOM    124  C5  SGN B   7      21.065  33.789  23.3640  0.00  0.00     0.000 C
ATOM    125  O5  SGN B   7      21.900  34.856  23.8670  0.00  0.00     0.000 O
ATOM    126   O  SGN B   7      22.498  33.729  19.8660  0.00  0.00     0.000 O
ATOM    128  HD  SGN B   7      22.461  34.347  20.4710  0.00  0.00     0.000 HD
BRANCH 121 130
ATOM    128   N  SGN B   7      22.978  36.798  21.3040  0.00  0.00     0.000 N
ATOM    130  HD  SGN B   7      23.657  36.791  21.8410  0.00  0.00     0.000 HD
ATOM    130   S  SGN B   7      24.222  37.258  20.3910  0.00  0.00     0.000 S
ATOM    131   O  SGN B   7      24.137  36.458  19.2170  0.00  0.00     0.000 OA
ATOM    132   O  SGN B   7      24.207  38.673  20.2970  0.00  0.00     0.000 OA
ATOM    133   O  SGN B   7      25.413  36.937  21.3560  0.00  0.00     0.000 OA
ENDBRANCH 121 130
BRANCH 124 134
ATOM    134   C  SGN B   7      20.946  32.824  24.5070  0.00  0.00     0.000 C
ATOM    135   O  SGN B   7      21.403  33.474  25.7050  0.00  0.00     0.000 O
ATOM    136   S  SGN B   7      21.215  32.680  27.0470  0.00  0.00     0.000 S
ATOM    137   O  SGN B   7      21.834  33.477  28.0800  0.00  0.00     0.000 OA
ATOM    138   O  SGN B   7      21.881  31.415  26.8350  0.00  0.00     0.000 OA
ATOM    139   O  SGN B   7      19.768  32.589  27.1570  0.00  0.00     0.000 OA
ENDBRANCH 124 134
BRANCH 120 140
ATOM    140  O4  IDS B   8      20.953  36.569  23.1000  0.00  0.00     0.000 O
BRANCH 140 144
ATOM    141  C1  IDS B   8      17.705  38.111  22.9250  0.00  0.00     0.000 C
ATOM    142  C2  IDS B   8      18.821  38.481  21.9080  0.00  0.00     0.000 C
ATOM    143  C3  IDS B   8      20.170  38.797  22.5800  0.00  0.00     0.000 C
ATOM    144  C4  IDS B   8      20.507  37.798  23.6860  0.00  0.00     0.000 C
ATOM    145  C5  IDS B   8      19.274  37.546  24.5660  0.00  0.00     0.000 C
ATOM    146  O5  IDS B   8      18.164  37.087  23.7990  0.00  0.00     0.000 O
BRANCH 142 147
ATOM    147   O  IDS B   8      19.048  37.339  20.9830  0.00  0.00     0.000 O
ATOM    148   S  IDS B   8      19.382  37.586  19.4160  0.00  0.00     0.000 S
ATOM    149   O  IDS B   8      19.024  38.950  19.1010  0.00  0.00     0.000 OA
ATOM    150   O  IDS B   8      20.805  37.333  19.2790  0.00  0.00     0.000 OA
ATOM    151   O  IDS B   8      18.563  36.630  18.6950  0.00  0.00     0.000 OA
ENDBRANCH 142 147
BRANCH 145 152
ATOM    152   C  IDS B   8      19.518  36.488  25.6230  0.00  0.00     0.000 C
ATOM    153   O  IDS B   8      20.435  36.632  26.4230  0.00  0.00     0.000 OA
ATOM    154   O  IDS B   8      18.787  35.515  25.6790  0.00  0.00     0.000 OA
ENDBRANCH 145 152
ENDBRANCH 140 144
ENDBRANCH 120 140
ENDBRANCH 119 123
ENDBRANCH 103 119
ENDBRANCH 102 106
ENDBRANCH 82 102
ENDBRANCH 81 85
ENDBRANCH 65 81
ENDBRANCH 64 68
ENDBRANCH 41 64
ENDBRANCH 40 44
ENDBRANCH 24 40
ENDBRANCH 23 27
ENDBRANCH 1 23
TORSDOF 31
ENDMDL
MODEL 88
REMARK VINA RESULT:      -6.6     12.904     19.610
ROOT
ATOM      1  C1  SGN B   1      47.011  12.262  11.6050  0.00  0.00     0.000 C
ATOM      2  C2  SGN B   1      46.760  13.374  10.5740  0.00  0.00     0.000 C
ATOM      3  C3  SGN B   1      45.657  14.322  11.0570  0.00  0.00     0.000 C
ATOM      4  C4  SGN B   1      44.387  13.537  11.3700  0.00  0.00     0.000 C
ATOM      5  C5  SGN B   1      44.738  12.366  12.2850  0.00  0.00     0.000 C
ATOM      6  O5  SGN B   1      45.771  11.570  11.6740  0.00  0.00     0.000 O
ATOM      7   O  SGN B   1      45.396  15.324  10.0810  0.00  0.00     0.000 O
ATOM      9  HD  SGN B   1      45.203  14.600   9.6460  0.00  0.00     0.000 HD
ATOM      9   O  SGN B   1      43.452  14.389  12.0040  0.00  0.00     0.000 O
ATOM     11  HD  SGN B   1      43.258  13.666  11.5700  0.00  0.00     0.000 HD
ENDROOT
BRANCH 2 13
ATOM     11   N  SGN B   1      47.742  13.008   9.5360  0.00  0.00     0.000 N
ATOM     13  HD  SGN B   1      47.995  13.143  10.3540  0.00  0.00     0.000 HD
ATOM     13   S  SGN B   1      49.284  13.461   9.6140  0.00  0.00     0.000 S
ATOM     14   O  SGN B   1      49.519  14.178  10.8060  0.00  0.00     0.000 OA
ATOM     15   O  SGN B   1      50.100  12.336   9.3020  0.00  0.00     0.000 OA
ATOM     16   O  SGN B   1      49.303  14.403   8.3710  0.00  0.00     0.000 OA
ENDBRANCH 2 13
BRANCH 5 17
ATOM     17   C  SGN B   1      43.578  11.448  12.5790  0.00  0.00     0.000 C
ATOM     18   O  SGN B   1      42.780  11.232  11.3980  0.00  0.00     0.000 O
ATOM     19   S  SGN B   1      41.196  11.331  11.5930  0.00  0.00     0.000 S
ATOM     20   O  SGN B   1      40.633  10.851  10.3490  0.00  0.00     0.000 OA
ATOM     21   O  SGN B   1      40.926  10.468  12.7200  0.00  0.00     0.000 OA
ATOM     22   O  SGN B   1      40.933  12.730  11.8480  0.00  0.00     0.000 OA
ENDBRANCH 5 17
BRANCH 1 23
ATOM     23  O4  IDS B   2      47.776  11.996  12.7030  0.00  0.00     0.000 O
BRANCH 23 27
ATOM     24  C1  IDS B   2      46.679  13.287  16.4930  0.00  0.00     0.000 C
ATOM     25  C2  IDS B   2      47.176  14.388  15.5310  0.00  0.00     0.000 C
ATOM     26  C3  IDS B   2      47.265  13.864  14.1000  0.00  0.00     0.000 C
ATOM     27  C4  IDS B   2      48.115  12.607  13.9650  0.00  0.00     0.000 C
ATOM     28  C5  IDS B   2      47.907  11.697  15.1920  0.00  0.00     0.000 C
ATOM     29  O5  IDS B   2      46.688  12.004  15.8510  0.00  0.00     0.000 O
ATOM     30   O  IDS B   2      47.843  14.864  13.2700  0.00  0.00     0.000 O
ATOM     32  HD  IDS B   2      48.705  14.909  13.3380  0.00  0.00     0.000 HD
BRANCH 25 32
ATOM     32   O  IDS B   2      46.280  15.571  15.5200  0.00  0.00     0.000 O
ATOM     33   S  IDS B   2      46.753  17.028  16.1330  0.00  0.00     0.000 S
ATOM     34   O  IDS B   2      45.562  17.863  16.1570  0.00  0.00     0.000 OA
ATOM     35   O  IDS B   2      47.296  16.838  17.4700  0.00  0.00     0.000 OA
ATOM     36   O  IDS B   2      47.736  17.540  15.2070  0.00  0.00     0.000 OA
ENDBRANCH 25 32
BRANCH 28 37
ATOM     37   C  IDS B   2      47.969  10.170  14.9750  0.00  0.00     0.000 C
ATOM     38   O  IDS B   2      46.898   9.632  15.1310  0.00  0.00     0.000 OA
ATOM     39   O  IDS B   2      48.965   9.500  14.6090  0.00  0.00     0.000 OA
ENDBRANCH 28 37
BRANCH 24 40
ATOM     40  O4  SUS B   3      46.598  13.536  17.8160  0.00  0.00     0.000 O
BRANCH 40 44
ATOM     41  C1  SUS B   3      43.805  12.220  20.6470  0.00  0.00     0.000 C
ATOM     42  C2  SUS B   3      44.916  11.231  20.2400  0.00  0.00     0.000 C
ATOM     43  C3  SUS B   3      46.072  12.005  19.6110  0.00  0.00     0.000 C
ATOM     44  C4  SUS B   3      45.536  12.840  18.4580  0.00  0.00     0.000 C
ATOM     45  C5  SUS B   3      44.524  13.829  18.9990  0.00  0.00     0.000 C
ATOM     46  O5  SUS B   3      43.428  13.086  19.5710  0.00  0.00     0.000 O
BRANCH 42 49
ATOM     47   N  SUS B   3      45.012  10.462  21.4930  0.00  0.00     0.000 N
ATOM     49  HD  SUS B   3      45.738  10.563  21.9550  0.00  0.00     0.000 HD
ATOM     49   S  SUS B   3      44.777   8.893  21.2730  0.00  0.00     0.000 S
ATOM     50   O  SUS B   3      45.708   8.394  20.3390  0.00  0.00     0.000 OA
ATOM     51   O  SUS B   3      45.156   8.452  22.7100  0.00  0.00     0.000 OA
ATOM     52   O  SUS B   3      43.411   8.655  21.0240  0.00  0.00     0.000 OA
ENDBRANCH 42 49
BRANCH 43 53
ATOM     53   O  SUS B   3      47.054  11.025  19.1060  0.00  0.00     0.000 O
ATOM     54   S  SUS B   3      48.490  10.927  19.8990  0.00  0.00     0.000 S
ATOM     55   O  SUS B   3      48.234  10.308  21.1920  0.00  0.00     0.000 OA
ATOM     56   O  SUS B   3      49.323  10.125  19.0210  0.00  0.00     0.000 OA
ATOM     57   O  SUS B   3      48.973  12.303  20.0550  0.00  0.00     0.000 OA
ENDBRANCH 43 53
BRANCH 45 58
ATOM     58   C  SUS B   3      44.017  14.766  17.9250  0.00  0.00     0.000 C
ATOM     59   S  SUS B   3      42.256  14.968  16.0690  0.00  0.00     0.000 S
ATOM     60   O  SUS B   3      42.810  14.231  17.3570  0.00  0.00     0.000 O
ATOM     61   O  SUS B   3      43.091  14.505  14.9780  0.00  0.00     0.000 OA
ATOM     62   O  SUS B   3      40.920  14.436  16.0110  0.00  0.00     0.000 OA
ATOM     63   O  SUS B   3      42.346  16.355  16.3580  0.00  0.00     0.000 OA
ENDBRANCH 45 58
BRANCH 41 64
ATOM     64  O4  IDS B   4      44.048  12.869  21.8320  0.00  0.00     0.000 O
BRANCH 64 68
ATOM     65  C1  IDS B   4      41.679  13.411  24.5470  0.00  0.00     0.000 C
ATOM     66  C2  IDS B   4      41.221  12.746  23.2430  0.00  0.00     0.000 C
ATOM     67  C3  IDS B   4      41.688  13.450  21.9800  0.00  0.00     0.000 C
ATOM     68  C4  IDS B   4      43.118  13.948  22.0780  0.00  0.00     0.000 C
ATOM     69  C5  IDS B   4      43.301  14.611  23.4500  0.00  0.00     0.000 C
ATOM     70  O5  IDS B   4      43.075  13.641  24.4750  0.00  0.00     0.000 O
ATOM     71   O  IDS B   4      40.818  14.541  21.7620  0.00  0.00     0.000 O
ATOM     73  HD  IDS B   4      41.061  13.785  22.1060  0.00  0.00     0.000 HD
BRANCH 66 73
ATOM     73   O  IDS B   4      41.796  11.395  23.1730  0.00  0.00     0.000 O
ATOM     74   S  IDS B   4      40.898  10.161  23.7080  0.00  0.00     0.000 S
ATOM     75   O  IDS B   4      40.550  10.470  25.0780  0.00  0.00     0.000 OA
ATOM     76   O  IDS B   4      41.808   9.051  23.5700  0.00  0.00     0.000 OA
ATOM     77   O  IDS B   4      39.756  10.105  22.8270  0.00  0.00     0.000 OA
ENDBRANCH 66 73
BRANCH 69 78
ATOM     78   C  IDS B   4      44.618  15.355  23.6190  0.00  0.00     0.000 C
ATOM     79   O  IDS B   4      44.861  16.304  22.8740  0.00  0.00     0.000 OA
ATOM     80   O  IDS B   4      45.358  15.048  24.5710  0.00  0.00     0.000 OA
ENDBRANCH 69 78
BRANCH 65 81
ATOM     81  O4  SGN B   5      40.892  14.492  24.8050  0.00  0.00     0.000 O
BRANCH 81 85
ATOM     82  C1  SGN B   5      38.927  16.525  27.9100  0.00  0.00     0.000 C
ATOM     83  C2  SGN B   5      40.366  16.959  27.5930  0.00  0.00     0.000 C
ATOM     84  C3  SGN B   5      40.751  16.471  26.1900  0.00  0.00     0.000 C
ATOM     85  C4  SGN B   5      40.549  14.969  26.1080  0.00  0.00     0.000 C
ATOM     86  C5  SGN B   5      39.085  14.665  26.4170  0.00  0.00     0.000 C
ATOM     87  O5  SGN B   5      38.789  15.126  27.7490  0.00  0.00     0.000 O
ATOM     88   O  SGN B   5      42.091  16.817  25.9140  0.00  0.00     0.000 O
ATOM     90  HD  SGN B   5      41.393  17.234  25.6150  0.00  0.00     0.000 HD
BRANCH 83 92
ATOM     90   N  SGN B   5      40.330  17.563  28.9400  0.00  0.00     0.000 N
ATOM     92  HD  SGN B   5      40.481  16.968  29.5510  0.00  0.00     0.000 HD
ATOM     92   S  SGN B   5      41.075  18.959  29.1560  0.00  0.00     0.000 S
ATOM     93   O  SGN B   5      40.864  19.263  30.5400  0.00  0.00     0.000 OA
ATOM     94   O  SGN B   5      42.396  18.773  28.6610  0.00  0.00     0.000 OA
ATOM     95   O  SGN B   5      40.373  19.919  28.2200  0.00  0.00     0.000 OA
ENDBRANCH 83 92
BRANCH 86 96
ATOM     96   C  SGN B   5      38.731  13.193  26.3600  0.00  0.00     0.000 C
ATOM     97   O  SGN B   5      39.343  12.487  27.4430  0.00  0.00     0.000 O
ATOM     98   S  SGN B   5      38.373  11.554  28.3150  0.00  0.00     0.000 S
ATOM     99   O  SGN B   5      39.297  10.843  29.1660  0.00  0.00     0.000 OA
ATOM    100   O  SGN B   5      37.470  12.405  29.0030  0.00  0.00     0.000 OA
ATOM    101   O  SGN B   5      37.729  10.717  27.3560  0.00  0.00     0.000 OA
ENDBRANCH 86 96
BRANCH 82 102
ATOM    102  O4  IDS B   6      38.002  17.183  27.1550  0.00  0.00     0.000 O
BRANCH 102 106
ATOM    103  C1  IDS B   6      34.700  18.697  27.3970  0.00  0.00     0.000 C
ATOM    104  C2  IDS B   6      35.498  18.347  28.6620  0.00  0.00     0.000 C
ATOM    105  C3  IDS B   6      36.111  16.960  28.6730  0.00  0.00     0.000 C
ATOM    106  C4  IDS B   6      36.700  16.569  27.3290  0.00  0.00     0.000 C
ATOM    107  C5  IDS B   6      35.746  16.985  26.2050  0.00  0.00     0.000 C
ATOM    108  O5  IDS B   6      35.457  18.384  26.2430  0.00  0.00     0.000 O
ATOM    109   O  IDS B   6      35.109  16.038  29.0720  0.00  0.00     0.000 O
ATOM    111  HD  IDS B   6      34.367  16.442  28.8820  0.00  0.00     0.000 HD
BRANCH 104 111
ATOM    111   O  IDS B   6      36.634  19.274  28.7840  0.00  0.00     0.000 O
ATOM    112   S  IDS B   6      37.141  19.656  30.2530  0.00  0.00     0.000 S
ATOM    113   O  IDS B   6      35.977  20.240  30.9020  0.00  0.00     0.000 OA
ATOM    114   O  IDS B   6      37.656  18.441  30.8970  0.00  0.00     0.000 OA
ATOM    115   O  IDS B   6      38.164  20.618  29.9050  0.00  0.00     0.000 OA
ENDBRANCH 104 111
BRANCH 107 116
ATOM    116   C  IDS B   6      36.363  16.621  24.8610  0.00  0.00     0.000 C
ATOM    117   O  IDS B   6      36.401  15.450  24.5810  0.00  0.00     0.000 OA
ATOM    118   O  IDS B   6      36.803  17.478  24.1110  0.00  0.00     0.000 OA
ENDBRANCH 107 116
BRANCH 103 119
ATOM    119  O4  SGN B   7      33.484  18.134  27.6180  0.00  0.00     0.000 O
BRANCH 119 123
ATOM    120  C1  SGN B   7      29.501  19.213  26.9420  0.00  0.00     0.000 C
ATOM    121  C2  SGN B   7      30.246  18.488  25.8060  0.00  0.00     0.000 C
ATOM    122  C3  SGN B   7      31.518  17.817  26.3400  0.00  0.00     0.000 C
ATOM    123  C4  SGN B   7      32.367  18.839  27.0770  0.00  0.00     0.000 C
ATOM    124  C5  SGN B   7      31.534  19.510  28.1820  0.00  0.00     0.000 C
ATOM    125  O5  SGN B   7      30.348  20.129  27.6350  0.00  0.00     0.000 O
ATOM    126   O  SGN B   7      32.235  17.238  25.2430  0.00  0.00     0.000 O
ATOM    128  HD  SGN B   7      31.509  17.611  25.5320  0.00  0.00     0.000 HD
BRANCH 121 130
ATOM    128   N  SGN B   7      29.095  18.801  24.9550  0.00  0.00     0.000 N
ATOM    130  HD  SGN B   7      29.623  18.963  24.2880  0.00  0.00     0.000 HD
ATOM    130   S  SGN B   7      28.594  17.810  23.7890  0.00  0.00     0.000 S
ATOM    131   O  SGN B   7      28.479  16.534  24.4080  0.00  0.00     0.000 OA
ATOM    132   O  SGN B   7      27.474  18.402  23.1510  0.00  0.00     0.000 OA
ATOM    133   O  SGN B   7      29.765  17.971  22.7610  0.00  0.00     0.000 OA
ENDBRANCH 121 130
BRANCH 124 134
ATOM    134   C  SGN B   7      32.251  20.619  28.8940  0.00  0.00     0.000 C
ATOM    135   O  SGN B   7      31.336  21.239  29.8140  0.00  0.00     0.000 O
ATOM    136   S  SGN B   7      31.938  22.330  30.7710  0.00  0.00     0.000 S
ATOM    137   O  SGN B   7      30.828  22.874  31.5160  0.00  0.00     0.000 OA
ATOM    138   O  SGN B   7      32.561  23.298  29.8980  0.00  0.00     0.000 OA
ATOM    139   O  SGN B   7      32.871  21.558  31.5780  0.00  0.00     0.000 OA
ENDBRANCH 124 134
BRANCH 120 140
ATOM    140  O4  IDS B   8      28.874  18.672  27.9930  0.00  0.00     0.000 O
BRANCH 140 144
ATOM    141  C1  IDS B   8      26.097  17.098  29.6570  0.00  0.00     0.000 C
ATOM    142  C2  IDS B   8      25.865  18.163  28.5480  0.00  0.00     0.000 C
ATOM    143  C3  IDS B   8      26.708  19.436  28.7490  0.00  0.00     0.000 C
ATOM    144  C4  IDS B   8      28.147  19.114  29.1460  0.00  0.00     0.000 C
ATOM    145  C5  IDS B   8      28.166  18.027  30.2310  0.00  0.00     0.000 C
ATOM    146  O5  IDS B   8      27.489  16.846  29.8060  0.00  0.00     0.000 O
BRANCH 142 147
ATOM    147   O  IDS B   8      26.238  17.593  27.2260  0.00  0.00     0.000 O
ATOM    148   S  IDS B   8      25.107  17.025  26.2120  0.00  0.00     0.000 S
ATOM    149   O  IDS B   8      23.892  16.834  26.9720  0.00  0.00     0.000 OA
ATOM    150   O  IDS B   8      24.971  18.035  25.1790  0.00  0.00     0.000 OA
ATOM    151   O  IDS B   8      25.637  15.770  25.7140  0.00  0.00     0.000 OA
ENDBRANCH 142 147
BRANCH 145 152
ATOM    152   C  IDS B   8      29.571  17.592  30.5970  0.00  0.00     0.000 C
ATOM    153   O  IDS B   8      30.270  18.325  31.2880  0.00  0.00     0.000 OA
ATOM    154   O  IDS B   8      29.985  16.511  30.2180  0.00  0.00     0.000 OA
ENDBRANCH 145 152
ENDBRANCH 140 144
ENDBRANCH 120 140
ENDBRANCH 119 123
ENDBRANCH 103 119
ENDBRANCH 102 106
ENDBRANCH 82 102
ENDBRANCH 81 85
ENDBRANCH 65 81
ENDBRANCH 64 68
ENDBRANCH 41 64
ENDBRANCH 40 44
ENDBRANCH 24 40
ENDBRANCH 23 27
ENDBRANCH 1 23
TORSDOF 31
ENDMDL
MODEL 89
REMARK VINA RESULT:      -6.6      7.218     12.832
ROOT
ATOM      1  C1  SGN B   1      40.460  25.666  18.1080  0.00  0.00     0.000 C
ATOM      2  C2  SGN B   1      41.142  26.140  19.4020  0.00  0.00     0.000 C
ATOM      3  C3  SGN B   1      40.165  26.086  20.5810  0.00  0.00     0.000 C
ATOM      4  C4  SGN B   1      38.913  26.896  20.2660  0.00  0.00     0.000 C
ATOM      5  C5  SGN B   1      38.372  26.469  18.9030  0.00  0.00     0.000 C
ATOM      6  O5  SGN B   1      39.408  26.600  17.9110  0.00  0.00     0.000 O
ATOM      7   O  SGN B   1      40.786  26.567  21.7670  0.00  0.00     0.000 O
ATOM      9  HD  SGN B   1      40.825  27.263  21.2530  0.00  0.00     0.000 HD
ATOM      9   O  SGN B   1      37.941  26.671  21.2700  0.00  0.00     0.000 O
ATOM     11  HD  SGN B   1      37.980  27.366  20.7560  0.00  0.00     0.000 HD
ENDROOT
BRANCH 2 13
ATOM     11   N  SGN B   1      42.517  26.459  18.9730  0.00  0.00     0.000 N
ATOM     13  HD  SGN B   1      42.158  25.697  18.7710  0.00  0.00     0.000 HD
ATOM     13   S  SGN B   1      43.630  25.320  18.7410  0.00  0.00     0.000 S
ATOM     14   O  SGN B   1      43.070  24.043  18.9560  0.00  0.00     0.000 OA
ATOM     15   O  SGN B   1      44.304  25.592  17.5160  0.00  0.00     0.000 OA
ATOM     16   O  SGN B   1      44.599  25.717  19.8970  0.00  0.00     0.000 OA
ENDBRANCH 2 13
BRANCH 5 17
ATOM     17   C  SGN B   1      37.191  27.280  18.4300  0.00  0.00     0.000 C
ATOM     18   O  SGN B   1      37.585  28.213  17.4040  0.00  0.00     0.000 O
ATOM     19   S  SGN B   1      37.018  29.701  17.5530  0.00  0.00     0.000 S
ATOM     20   O  SGN B   1      37.352  30.356  16.3070  0.00  0.00     0.000 OA
ATOM     21   O  SGN B   1      35.598  29.519  17.7490  0.00  0.00     0.000 OA
ATOM     22   O  SGN B   1      37.704  30.253  18.7010  0.00  0.00     0.000 OA
ENDBRANCH 5 17
BRANCH 1 23
ATOM     23  O4  IDS B   2      40.237  24.527  17.3910  0.00  0.00     0.000 O
BRANCH 23 27
ATOM     24  C1  IDS B   2      36.992  22.352  18.7930  0.00  0.00     0.000 C
ATOM     25  C2  IDS B   2      38.366  21.943  19.3660  0.00  0.00     0.000 C
ATOM     26  C3  IDS B   2      39.432  22.981  19.0230  0.00  0.00     0.000 C
ATOM     27  C4  IDS B   2      39.536  23.274  17.5320  0.00  0.00     0.000 C
ATOM     28  C5  IDS B   2      38.133  23.253  16.8920  0.00  0.00     0.000 C
ATOM     29  O5  IDS B   2      37.124  23.444  17.8730  0.00  0.00     0.000 O
ATOM     30   O  IDS B   2      40.702  22.510  19.4580  0.00  0.00     0.000 O
ATOM     32  HD  IDS B   2      41.052  21.928  18.9200  0.00  0.00     0.000 HD
BRANCH 25 32
ATOM     32   O  IDS B   2      38.339  21.801  20.8430  0.00  0.00     0.000 O
ATOM     33   S  IDS B   2      38.365  20.323  21.5760  0.00  0.00     0.000 S
ATOM     34   O  IDS B   2      38.100  20.566  22.9860  0.00  0.00     0.000 OA
ATOM     35   O  IDS B   2      37.345  19.470  20.9830  0.00  0.00     0.000 OA
ATOM     36   O  IDS B   2      39.699  19.809  21.3720  0.00  0.00     0.000 OA
ENDBRANCH 25 32
BRANCH 28 37
ATOM     37   C  IDS B   2      37.860  24.221  15.7220  0.00  0.00     0.000 C
ATOM     38   O  IDS B   2      36.991  25.022  15.9710  0.00  0.00     0.000 OA
ATOM     39   O  IDS B   2      38.477  24.278  14.6300  0.00  0.00     0.000 OA
ENDBRANCH 28 37
BRANCH 24 40
ATOM     40  O4  SUS B   3      35.932  21.528  18.9330  0.00  0.00     0.000 O
BRANCH 40 44
ATOM     41  C1  SUS B   3      31.860  22.396  19.3930  0.00  0.00     0.000 C
ATOM     42  C2  SUS B   3      32.489  22.674  18.0120  0.00  0.00     0.000 C
ATOM     43  C3  SUS B   3      33.785  21.878  17.8800  0.00  0.00     0.000 C
ATOM     44  C4  SUS B   3      34.692  22.217  19.0520  0.00  0.00     0.000 C
ATOM     45  C5  SUS B   3      34.002  21.814  20.3390  0.00  0.00     0.000 C
ATOM     46  O5  SUS B   3      32.792  22.589  20.4630  0.00  0.00     0.000 O
BRANCH 42 49
ATOM     47   N  SUS B   3      31.422  22.423  17.0280  0.00  0.00     0.000 N
ATOM     49  HD  SUS B   3      31.582  21.816  16.4310  0.00  0.00     0.000 HD
ATOM     49   S  SUS B   3      30.953  23.755  16.2710  0.00  0.00     0.000 S
ATOM     50   O  SUS B   3      32.056  24.357  15.6320  0.00  0.00     0.000 OA
ATOM     51   O  SUS B   3      30.034  23.058  15.2350  0.00  0.00     0.000 OA
ATOM     52   O  SUS B   3      30.196  24.551  17.1530  0.00  0.00     0.000 OA
ENDBRANCH 42 49
BRANCH 43 53
ATOM     53   O  SUS B   3      34.433  22.270  16.6140  0.00  0.00     0.000 O
ATOM     54   S  SUS B   3      34.572  21.115  15.4530  0.00  0.00     0.000 S
ATOM     55   O  SUS B   3      33.238  20.863  14.9270  0.00  0.00     0.000 OA
ATOM     56   O  SUS B   3      35.483  21.697  14.4840  0.00  0.00     0.000 OA
ATOM     57   O  SUS B   3      35.115  19.925  16.1150  0.00  0.00     0.000 OA
ENDBRANCH 43 53
BRANCH 45 58
ATOM     58   C  SUS B   3      34.886  22.029  21.5480  0.00  0.00     0.000 C
ATOM     59   S  SUS B   3      35.759  23.852  23.1300  0.00  0.00     0.000 S
ATOM     60   O  SUS B   3      34.746  23.385  22.0060  0.00  0.00     0.000 O
ATOM     61   O  SUS B   3      37.005  24.111  22.4340  0.00  0.00     0.000 OA
ATOM     62   O  SUS B   3      35.117  25.054  23.5870  0.00  0.00     0.000 OA
ATOM     63   O  SUS B   3      35.799  22.789  24.0710  0.00  0.00     0.000 OA
ENDBRANCH 45 58
BRANCH 41 64
ATOM     64  O4  IDS B   4      31.168  21.212  19.4570  0.00  0.00     0.000 O
BRANCH 64 68
ATOM     65  C1  IDS B   4      28.481  18.824  20.0510  0.00  0.00     0.000 C
ATOM     66  C2  IDS B   4      28.331  19.903  18.9710  0.00  0.00     0.000 C
ATOM     67  C3  IDS B   4      28.735  21.298  19.4160  0.00  0.00     0.000 C
ATOM     68  C4  IDS B   4      29.983  21.303  20.2790  0.00  0.00     0.000 C
ATOM     69  C5  IDS B   4      29.861  20.167  21.3030  0.00  0.00     0.000 C
ATOM     70  O5  IDS B   4      29.778  18.918  20.6120  0.00  0.00     0.000 O
ATOM     71   O  IDS B   4      27.650  21.837  20.1440  0.00  0.00     0.000 O
ATOM     73  HD  IDS B   4      28.036  21.289  19.5950  0.00  0.00     0.000 HD
BRANCH 66 73
ATOM     73   O  IDS B   4      29.222  19.577  17.8490  0.00  0.00     0.000 O
ATOM     74   S  IDS B   4      28.546  19.134  16.4480  0.00  0.00     0.000 S
ATOM     75   O  IDS B   4      27.700  17.998  16.7420  0.00  0.00     0.000 OA
ATOM     76   O  IDS B   4      29.703  18.813  15.6500  0.00  0.00     0.000 OA
ATOM     77   O  IDS B   4      27.812  20.290  15.9910  0.00  0.00     0.000 OA
ENDBRANCH 66 73
BRANCH 69 78
ATOM     78   C  IDS B   4      30.933  20.176  22.3840  0.00  0.00     0.000 C
ATOM     79   O  IDS B   4      32.054  19.750  22.1080  0.00  0.00     0.000 OA
ATOM     80   O  IDS B   4      30.672  20.710  23.4770  0.00  0.00     0.000 OA
ENDBRANCH 69 78
BRANCH 65 81
ATOM     81  O4  SGN B   5      27.431  18.900  20.9160  0.00  0.00     0.000 O
BRANCH 81 85
ATOM     82  C1  SGN B   5      24.964  16.622  23.4380  0.00  0.00     0.000 C
ATOM     83  C2  SGN B   5      26.361  16.981  23.9660  0.00  0.00     0.000 C
ATOM     84  C3  SGN B   5      26.926  18.161  23.1640  0.00  0.00     0.000 C
ATOM     85  C4  SGN B   5      26.918  17.811  21.6860  0.00  0.00     0.000 C
ATOM     86  C5  SGN B   5      25.482  17.499  21.2750  0.00  0.00     0.000 C
ATOM     87  O5  SGN B   5      25.014  16.375  22.0450  0.00  0.00     0.000 O
ATOM     88   O  SGN B   5      28.232  18.459  23.6060  0.00  0.00     0.000 O
ATOM     90  HD  SGN B   5      27.518  18.900  23.8170  0.00  0.00     0.000 HD
BRANCH 83 92
ATOM     90   N  SGN B   5      26.120  17.155  25.4120  0.00  0.00     0.000 N
ATOM     92  HD  SGN B   5      25.305  17.407  25.5630  0.00  0.00     0.000 HD
ATOM     92   S  SGN B   5      26.678  16.035  26.4070  0.00  0.00     0.000 S
ATOM     93   O  SGN B   5      26.281  16.487  27.7070  0.00  0.00     0.000 OA
ATOM     94   O  SGN B   5      26.192  14.796  25.9040  0.00  0.00     0.000 OA
ATOM     95   O  SGN B   5      28.177  16.050  26.2010  0.00  0.00     0.000 OA
ENDBRANCH 83 92
BRANCH 86 96
ATOM     96   C  SGN B   5      25.318  17.142  19.8120  0.00  0.00     0.000 C
ATOM     97   O  SGN B   5      25.537  15.744  19.6090  0.00  0.00     0.000 O
ATOM     98   S  SGN B   5      24.401  14.965  18.7870  0.00  0.00     0.000 S
ATOM     99   O  SGN B   5      24.995  13.666  18.5790  0.00  0.00     0.000 OA
ATOM    100   O  SGN B   5      23.227  14.958  19.5840  0.00  0.00     0.000 OA
ATOM    101   O  SGN B   5      24.253  15.718  17.5840  0.00  0.00     0.000 OA
ENDBRANCH 86 96
BRANCH 82 102
ATOM    102  O4  IDS B   6      24.036  17.581  23.7160  0.00  0.00     0.000 O
BRANCH 102 106
ATOM    103  C1  IDS B   6      21.104  18.750  25.5320  0.00  0.00     0.000 C
ATOM    104  C2  IDS B   6      22.107  17.792  26.1930  0.00  0.00     0.000 C
ATOM    105  C3  IDS B   6      22.513  16.602  25.3450  0.00  0.00     0.000 C
ATOM    106  C4  IDS B   6      22.733  16.968  23.8870  0.00  0.00     0.000 C
ATOM    107  C5  IDS B   6      21.621  17.910  23.4170  0.00  0.00     0.000 C
ATOM    108  O5  IDS B   6      21.539  19.084  24.2280  0.00  0.00     0.000 O
ATOM    109   O  IDS B   6      21.508  15.608  25.4680  0.00  0.00     0.000 O
ATOM    111  HD  IDS B   6      20.804  16.053  25.7070  0.00  0.00     0.000 HD
BRANCH 104 111
ATOM    111   O  IDS B   6      23.356  18.518  26.4660  0.00  0.00     0.000 O
ATOM    112   S  IDS B   6      23.635  19.000  27.9670  0.00  0.00     0.000 S
ATOM    113   O  IDS B   6      22.504  19.855  28.2920  0.00  0.00     0.000 OA
ATOM    114   O  IDS B   6      23.769  17.812  28.8180  0.00  0.00     0.000 OA
ATOM    115   O  IDS B   6      24.873  19.718  27.7560  0.00  0.00     0.000 OA
ENDBRANCH 104 111
BRANCH 107 116
ATOM    116   C  IDS B   6      21.871  18.300  21.9660  0.00  0.00     0.000 C
ATOM    117   O  IDS B   6      21.799  17.418  21.1480  0.00  0.00     0.000 OA
ATOM    118   O  IDS B   6      22.140  19.449  21.6540  0.00  0.00     0.000 OA
ENDBRANCH 107 116
BRANCH 103 119
ATOM    119  O4  SGN B   7      19.903  18.155  25.7450  0.00  0.00     0.000 O
BRANCH 119 123
ATOM    120  C1  SGN B   7      15.988  19.417  26.5020  0.00  0.00     0.000 C
ATOM    121  C2  SGN B   7      16.482  19.460  25.0440  0.00  0.00     0.000 C
ATOM    122  C3  SGN B   7      17.748  18.609  24.8790  0.00  0.00     0.000 C
ATOM    123  C4  SGN B   7      18.792  19.040  25.8960  0.00  0.00     0.000 C
ATOM    124  C5  SGN B   7      18.201  18.968  27.3140  0.00  0.00     0.000 C
ATOM    125  O5  SGN B   7      17.013  19.784  27.4230  0.00  0.00     0.000 O
ATOM    126   O  SGN B   7      18.234  18.752  23.5390  0.00  0.00     0.000 O
ATOM    128  HD  SGN B   7      17.599  18.895  24.1110  0.00  0.00     0.000 HD
BRANCH 121 130
ATOM    128   N  SGN B   7      15.088  19.842  24.8050  0.00  0.00     0.000 N
ATOM    130  HD  SGN B   7      15.339  20.637  24.5690  0.00  0.00     0.000 HD
ATOM    130   S  SGN B   7      14.491  20.033  23.3210  0.00  0.00     0.000 S
ATOM    131   O  SGN B   7      14.857  18.851  22.6180  0.00  0.00     0.000 OA
ATOM    132   O  SGN B   7      13.128  20.408  23.4330  0.00  0.00     0.000 OA
ATOM    133   O  SGN B   7      15.228  21.346  22.8890  0.00  0.00     0.000 OA
ENDBRANCH 121 130
BRANCH 124 134
ATOM    134   C  SGN B   7      19.120  19.485  28.3810  0.00  0.00     0.000 C
ATOM    135   O  SGN B   7      18.338  20.203  29.3510  0.00  0.00     0.000 O
ATOM    136   S  SGN B   7      19.096  20.695  30.6350  0.00  0.00     0.000 S
ATOM    137   O  SGN B   7      18.144  21.468  31.3970  0.00  0.00     0.000 OA
ATOM    138   O  SGN B   7      20.201  21.487  30.1430  0.00  0.00     0.000 OA
ATOM    139   O  SGN B   7      19.485  19.445  31.2680  0.00  0.00     0.000 OA
ENDBRANCH 124 134
BRANCH 120 140
ATOM    140  O4  IDS B   8      15.474  18.375  27.1660  0.00  0.00     0.000 O
BRANCH 140 144
ATOM    141  C1  IDS B   8      13.089  15.711  27.5850  0.00  0.00     0.000 C
ATOM    142  C2  IDS B   8      12.674  17.061  26.9340  0.00  0.00     0.000 C
ATOM    143  C3  IDS B   8      13.127  18.288  27.7460  0.00  0.00     0.000 C
ATOM    144  C4  IDS B   8      14.563  18.143  28.2480  0.00  0.00     0.000 C
ATOM    145  C5  IDS B   8      14.782  16.739  28.8300  0.00  0.00     0.000 C
ATOM    146  O5  IDS B   8      14.481  15.721  27.8790  0.00  0.00     0.000 O
BRANCH 142 147
ATOM    147   O  IDS B   8      13.292  17.172  25.5860  0.00  0.00     0.000 O
ATOM    148   S  IDS B   8      12.680  16.370  24.3170  0.00  0.00     0.000 S
ATOM    149   O  IDS B   8      11.801  15.343  24.8290  0.00  0.00     0.000 OA
ATOM    150   O  IDS B   8      11.978  17.367  23.5300  0.00  0.00     0.000 OA
ATOM    151   O  IDS B   8      13.828  15.808  23.6310  0.00  0.00     0.000 OA
ENDBRANCH 142 147
BRANCH 145 152
ATOM    152   C  IDS B   8      16.217  16.501  29.2550  0.00  0.00     0.000 C
ATOM    153   O  IDS B   8      16.824  15.530  28.8160  0.00  0.00     0.000 OA
ATOM    154   O  IDS B   8      16.759  17.286  30.0120  0.00  0.00     0.000 OA
ENDBRANCH 145 152
ENDBRANCH 140 144
ENDBRANCH 120 140
ENDBRANCH 119 123
ENDBRANCH 103 119
ENDBRANCH 102 106
ENDBRANCH 82 102
ENDBRANCH 81 85
ENDBRANCH 65 81
ENDBRANCH 64 68
ENDBRANCH 41 64
ENDBRANCH 40 44
ENDBRANCH 24 40
ENDBRANCH 23 27
ENDBRANCH 1 23
TORSDOF 31
ENDMDL
MODEL 90
REMARK VINA RESULT:      -6.6      9.220     15.744
ROOT
ATOM      1  C1  SGN B   1      14.969  21.047  20.2000  0.00  0.00     0.000 C
ATOM      2  C2  SGN B   1      13.871  20.069  20.6470  0.00  0.00     0.000 C
ATOM      3  C3  SGN B   1      13.105  19.522  19.4360  0.00  0.00     0.000 C
ATOM      4  C4  SGN B   1      12.543  20.672  18.6060  0.00  0.00     0.000 C
ATOM      5  C5  SGN B   1      13.659  21.674  18.3200  0.00  0.00     0.000 C
ATOM      6  O5  SGN B   1      14.256  22.097  19.5610  0.00  0.00     0.000 O
ATOM      7   O  SGN B   1      12.061  18.652  19.8560  0.00  0.00     0.000 O
ATOM      9  HD  SGN B   1      11.829  19.399  20.2300  0.00  0.00     0.000 HD
ATOM      9   O  SGN B   1      12.020  20.164  17.3930  0.00  0.00     0.000 O
ATOM     11  HD  SGN B   1      11.789  20.910  17.7660  0.00  0.00     0.000 HD
ENDROOT
BRANCH 2 13
ATOM     11   N  SGN B   1      14.029  20.066  22.1130  0.00  0.00     0.000 N
ATOM     13  HD  SGN B   1      14.706  19.909  21.5970  0.00  0.00     0.000 HD
ATOM     13   S  SGN B   1      15.149  19.180  22.8550  0.00  0.00     0.000 S
ATOM     14   O  SGN B   1      15.934  18.494  21.9040  0.00  0.00     0.000 OA
ATOM     15   O  SGN B   1      15.787  19.991  23.8370  0.00  0.00     0.000 OA
ATOM     16   O  SGN B   1      14.195  18.205  23.6130  0.00  0.00     0.000 OA
ENDBRANCH 2 13
BRANCH 5 17
ATOM     17   C  SGN B   1      13.200  22.915  17.5960  0.00  0.00     0.000 C
ATOM     18   O  SGN B   1      11.928  23.365  18.1020  0.00  0.00     0.000 O
ATOM     19   S  SGN B   1      10.841  23.775  17.0030  0.00  0.00     0.000 S
ATOM     20   O  SGN B   1       9.770  24.401  17.7490  0.00  0.00     0.000 OA
ATOM     21   O  SGN B   1      11.547  24.686  16.1320  0.00  0.00     0.000 OA
ATOM     22   O  SGN B   1      10.458  22.533  16.3690  0.00  0.00     0.000 OA
ENDBRANCH 5 17
BRANCH 1 23
ATOM     23  O4  IDS B   2      16.282  21.060  19.8310  0.00  0.00     0.000 O
BRANCH 23 27
ATOM     24  C1  IDS B   2      19.412  20.726  22.5370  0.00  0.00     0.000 C
ATOM     25  C2  IDS B   2      18.614  22.046  22.6010  0.00  0.00     0.000 C
ATOM     26  C3  IDS B   2      17.325  21.945  21.7890  0.00  0.00     0.000 C
ATOM     27  C4  IDS B   2      17.550  21.520  20.3440  0.00  0.00     0.000 C
ATOM     28  C5  IDS B   2      18.684  20.478  20.2710  0.00  0.00     0.000 C
ATOM     29  O5  IDS B   2      18.881  19.854  21.5310  0.00  0.00     0.000 O
ATOM     30   O  IDS B   2      16.683  23.214  21.7690  0.00  0.00     0.000 O
ATOM     32  HD  IDS B   2      17.034  23.765  21.2000  0.00  0.00     0.000 HD
BRANCH 25 32
ATOM     32   O  IDS B   2      18.240  22.410  23.9900  0.00  0.00     0.000 O
ATOM     33   S  IDS B   2      18.675  23.855  24.6590  0.00  0.00     0.000 S
ATOM     34   O  IDS B   2      18.340  23.764  26.0710  0.00  0.00     0.000 OA
ATOM     35   O  IDS B   2      20.101  24.069  24.4630  0.00  0.00     0.000 OA
ATOM     36   O  IDS B   2      17.871  24.852  23.9910  0.00  0.00     0.000 OA
ENDBRANCH 25 32
BRANCH 28 37
ATOM     37   C  IDS B   2      18.583  19.377  19.1950  0.00  0.00     0.000 C
ATOM     38   O  IDS B   2      18.024  18.383  19.5940  0.00  0.00     0.000 OA
ATOM     39   O  IDS B   2      18.954  19.455  17.9980  0.00  0.00     0.000 OA
ENDBRANCH 28 37
BRANCH 24 40
ATOM     40  O4  SUS B   3      20.617  20.638  23.1380  0.00  0.00     0.000 O
BRANCH 40 44
ATOM     41  C1  SUS B   3      22.444  17.400  25.0680  0.00  0.00     0.000 C
ATOM     42  C2  SUS B   3      22.505  17.429  23.5270  0.00  0.00     0.000 C
ATOM     43  C3  SUS B   3      22.241  18.852  23.0400  0.00  0.00     0.000 C
ATOM     44  C4  SUS B   3      20.918  19.331  23.6150  0.00  0.00     0.000 C
ATOM     45  C5  SUS B   3      21.016  19.344  25.1270  0.00  0.00     0.000 C
ATOM     46  O5  SUS B   3      21.243  17.993  25.5750  0.00  0.00     0.000 O
BRANCH 42 49
ATOM     47   N  SUS B   3      22.751  16.753  22.2420  0.00  0.00     0.000 N
ATOM     49  HD  SUS B   3      22.054  16.575  21.7590  0.00  0.00     0.000 HD
ATOM     49   S  SUS B   3      23.602  15.405  22.4050  0.00  0.00     0.000 S
ATOM     50   O  SUS B   3      22.940  14.524  23.2840  0.00  0.00     0.000 OA
ATOM     51   O  SUS B   3      23.458  14.924  20.9380  0.00  0.00     0.000 OA
ATOM     52   O  SUS B   3      24.942  15.731  22.6930  0.00  0.00     0.000 OA
ENDBRANCH 42 49
BRANCH 43 53
ATOM     53   O  SUS B   3      22.167  18.821  21.5660  0.00  0.00     0.000 O
ATOM     54   S  SUS B   3      23.336  19.627  20.7390  0.00  0.00     0.000 S
ATOM     55   O  SUS B   3      24.575  18.877  20.8940  0.00  0.00     0.000 OA
ATOM     56   O  SUS B   3      22.841  19.664  19.3750  0.00  0.00     0.000 OA
ATOM     57   O  SUS B   3      23.439  20.954  21.3530  0.00  0.00     0.000 OA
ENDBRANCH 43 53
BRANCH 45 58
ATOM     58   C  SUS B   3      19.768  19.907  25.7710  0.00  0.00     0.000 C
ATOM     59   S  SUS B   3      18.012  19.412  27.5750  0.00  0.00     0.000 S
ATOM     60   O  SUS B   3      19.413  19.101  26.9070  0.00  0.00     0.000 O
ATOM     61   O  SUS B   3      17.031  18.792  26.7050  0.00  0.00     0.000 OA
ATOM     62   O  SUS B   3      18.155  18.723  28.8300  0.00  0.00     0.000 OA
ATOM     63   O  SUS B   3      17.939  20.827  27.6640  0.00  0.00     0.000 OA
ENDBRANCH 45 58
BRANCH 41 64
ATOM     64  O4  IDS B   4      23.591  17.847  25.6750  0.00  0.00     0.000 O
BRANCH 64 68
ATOM     65  C1  IDS B   4      26.566  17.877  27.7790  0.00  0.00     0.000 C
ATOM     66  C2  IDS B   4      26.421  16.837  26.6610  0.00  0.00     0.000 C
ATOM     67  C3  IDS B   4      25.066  16.151  26.6130  0.00  0.00     0.000 C
ATOM     68  C4  IDS B   4      23.914  17.104  26.8720  0.00  0.00     0.000 C
ATOM     69  C5  IDS B   4      24.290  17.996  28.0620  0.00  0.00     0.000 C
ATOM     70  O5  IDS B   4      25.455  18.755  27.7320  0.00  0.00     0.000 O
ATOM     71   O  IDS B   4      25.075  15.135  27.5940  0.00  0.00     0.000 O
ATOM     73  HD  IDS B   4      25.430  15.716  27.0590  0.00  0.00     0.000 HD
BRANCH 66 73
ATOM     73   O  IDS B   4      26.564  17.513  25.3640  0.00  0.00     0.000 O
ATOM     74   S  IDS B   4      27.910  17.240  24.5100  0.00  0.00     0.000 S
ATOM     75   O  IDS B   4      29.019  17.596  25.3690  0.00  0.00     0.000 OA
ATOM     76   O  IDS B   4      27.732  18.123  23.3850  0.00  0.00     0.000 OA
ATOM     77   O  IDS B   4      27.875  15.836  24.1750  0.00  0.00     0.000 OA
ENDBRANCH 66 73
BRANCH 69 78
ATOM     78   C  IDS B   4      23.150  18.858  28.5870  0.00  0.00     0.000 C
ATOM     79   O  IDS B   4      22.012  18.391  28.5990  0.00  0.00     0.000 OA
ATOM     80   O  IDS B   4      23.422  19.966  29.0860  0.00  0.00     0.000 OA
ENDBRANCH 69 78
BRANCH 65 81
ATOM     81  O4  SGN B   5      26.796  17.241  28.9620  0.00  0.00     0.000 O
BRANCH 81 85
ATOM     82  C1  SGN B   5      28.861  17.514  32.6080  0.00  0.00     0.000 C
ATOM     83  C2  SGN B   5      27.708  18.503  32.3840  0.00  0.00     0.000 C
ATOM     84  C3  SGN B   5      26.795  17.983  31.2650  0.00  0.00     0.000 C
ATOM     85  C4  SGN B   5      27.623  17.737  30.0160  0.00  0.00     0.000 C
ATOM     86  C5  SGN B   5      28.715  16.726  30.3560  0.00  0.00     0.000 C
ATOM     87  O5  SGN B   5      29.548  17.277  31.3940  0.00  0.00     0.000 O
ATOM     88   O  SGN B   5      25.765  18.914  31.0140  0.00  0.00     0.000 O
ATOM     90  HD  SGN B   5      25.681  18.183  31.4710  0.00  0.00     0.000 HD
BRANCH 83 92
ATOM     90   N  SGN B   5      27.811  19.853  32.9720  0.00  0.00     0.000 N
ATOM     92  HD  SGN B   5      27.492  20.452  32.4330  0.00  0.00     0.000 HD
ATOM     92   S  SGN B   5      27.404  20.038  34.5060  0.00  0.00     0.000 S
ATOM     93   O  SGN B   5      27.605  21.433  34.7610  0.00  0.00     0.000 OA
ATOM     94   O  SGN B   5      26.105  19.471  34.6310  0.00  0.00     0.000 OA
ATOM     95   O  SGN B   5      28.361  19.148  35.2680  0.00  0.00     0.000 OA
ENDBRANCH 83 92
BRANCH 86 96
ATOM     96   C  SGN B   5      29.618  16.374  29.1920  0.00  0.00     0.000 C
ATOM     97   O  SGN B   5      30.116  17.559  28.5660  0.00  0.00     0.000 O
ATOM     98   S  SGN B   5      31.703  17.628  28.3450  0.00  0.00     0.000 S
ATOM     99   O  SGN B   5      31.859  18.810  27.5320  0.00  0.00     0.000 OA
ATOM    100   O  SGN B   5      32.308  17.706  29.6260  0.00  0.00     0.000 OA
ATOM    101   O  SGN B   5      32.018  16.420  27.6540  0.00  0.00     0.000 OA
ENDBRANCH 86 96
BRANCH 82 102
ATOM    102  O4  IDS B   6      28.444  16.337  33.1540  0.00  0.00     0.000 O
BRANCH 102 106
ATOM    103  C1  IDS B   6      28.323  13.500  35.4330  0.00  0.00     0.000 C
ATOM    104  C2  IDS B   6      27.884  14.898  35.8950  0.00  0.00     0.000 C
ATOM    105  C3  IDS B   6      28.836  16.022  35.5370  0.00  0.00     0.000 C
ATOM    106  C4  IDS B   6      29.408  15.883  34.1370  0.00  0.00     0.000 C
ATOM    107  C5  IDS B   6      29.801  14.424  33.8820  0.00  0.00     0.000 C
ATOM    108  O5  IDS B   6      28.699  13.535  34.0700  0.00  0.00     0.000 O
ATOM    109   O  IDS B   6      29.873  16.048  36.5050  0.00  0.00     0.000 O
ATOM    111  HD  IDS B   6      29.875  15.245  36.8290  0.00  0.00     0.000 HD
BRANCH 104 111
ATOM    111   O  IDS B   6      26.613  15.242  35.2390  0.00  0.00     0.000 O
ATOM    112   S  IDS B   6      25.350  15.566  36.1680  0.00  0.00     0.000 S
ATOM    113   O  IDS B   6      25.164  14.364  36.9660  0.00  0.00     0.000 OA
ATOM    114   O  IDS B   6      25.641  16.777  36.9420  0.00  0.00     0.000 OA
ATOM    115   O  IDS B   6      24.346  15.749  35.1410  0.00  0.00     0.000 OA
ENDBRANCH 104 111
BRANCH 107 116
ATOM    116   C  IDS B   6      30.340  14.288  32.4640  0.00  0.00     0.000 C
ATOM    117   O  IDS B   6      29.584  13.844  31.6370  0.00  0.00     0.000 OA
ATOM    118   O  IDS B   6      31.485  14.606  32.1860  0.00  0.00     0.000 OA
ENDBRANCH 107 116
BRANCH 103 119
ATOM    119  O4  SGN B   7      29.195  13.103  36.3960  0.00  0.00     0.000 O
BRANCH 119 123
ATOM    120  C1  SGN B   7      30.083   9.346  38.0060  0.00  0.00     0.000 C
ATOM    121  C2  SGN B   7      31.191  10.061  37.2100  0.00  0.00     0.000 C
ATOM    122  C3  SGN B   7      30.859  11.550  37.0440  0.00  0.00     0.000 C
ATOM    123  C4  SGN B   7      29.472  11.703  36.4410  0.00  0.00     0.000 C
ATOM    124  C5  SGN B   7      28.443  10.951  37.3020  0.00  0.00     0.000 C
ATOM    125  O5  SGN B   7      28.794   9.555  37.4300  0.00  0.00     0.000 O
ATOM    126   O  SGN B   7      31.857  12.160  36.2180  0.00  0.00     0.000 O
ATOM    128  HD  SGN B   7      31.599  11.469  36.6700  0.00  0.00     0.000 HD
BRANCH 121 130
ATOM    128   N  SGN B   7      32.014   9.009  37.8110  0.00  0.00     0.000 N
ATOM    130  HD  SGN B   7      31.976   8.550  37.0770  0.00  0.00     0.000 HD
ATOM    130   S  SGN B   7      33.553   8.779  37.3950  0.00  0.00     0.000 S
ATOM    131   O  SGN B   7      34.160  10.062  37.4890  0.00  0.00     0.000 OA
ATOM    132   O  SGN B   7      34.060   7.688  38.1470  0.00  0.00     0.000 OA
ATOM    133   O  SGN B   7      33.370   8.210  35.9470  0.00  0.00     0.000 OA
ENDBRANCH 121 130
BRANCH 124 134
ATOM    134   C  SGN B   7      27.058  10.946  36.7250  0.00  0.00     0.000 C
ATOM    135   O  SGN B   7      26.725   9.600  36.3440  0.00  0.00     0.000 O
ATOM    136   S  SGN B   7      25.252   9.354  35.8570  0.00  0.00     0.000 S
ATOM    137   O  SGN B   7      25.188   7.975  35.4370  0.00  0.00     0.000 OA
ATOM    138   O  SGN B   7      25.052  10.286  34.7700  0.00  0.00     0.000 OA
ATOM    139   O  SGN B   7      24.475   9.646  37.0520  0.00  0.00     0.000 OA
ENDBRANCH 124 134
BRANCH 120 140
ATOM    140  O4  IDS B   8      29.763   9.504  39.2950  0.00  0.00     0.000 O
BRANCH 140 144
ATOM    141  C1  IDS B   8      29.012  11.201  42.3800  0.00  0.00     0.000 C
ATOM    142  C2  IDS B   8      30.095  11.750  41.4080  0.00  0.00     0.000 C
ATOM    143  C3  IDS B   8      31.092  10.673  40.9440  0.00  0.00     0.000 C
ATOM    144  C4  IDS B   8      30.392   9.366  40.5750  0.00  0.00     0.000 C
ATOM    145  C5  IDS B   8      29.346   9.006  41.6410  0.00  0.00     0.000 C
ATOM    146  O5  IDS B   8      28.393  10.051  41.8170  0.00  0.00     0.000 O
BRANCH 142 147
ATOM    147   O  IDS B   8      29.438  12.295  40.1910  0.00  0.00     0.000 O
ATOM    148   S  IDS B   8      29.265  13.894  39.9790  0.00  0.00     0.000 S
ATOM    149   O  IDS B   8      29.473  14.531  41.2600  0.00  0.00     0.000 OA
ATOM    150   O  IDS B   8      30.267  14.265  38.9980  0.00  0.00     0.000 OA
ATOM    151   O  IDS B   8      27.907  14.071  39.5010  0.00  0.00     0.000 OA
ENDBRANCH 142 147
BRANCH 145 152
ATOM    152   C  IDS B   8      28.548   7.769  41.2810  0.00  0.00     0.000 C
ATOM    153   O  IDS B   8      27.480   7.889  40.6930  0.00  0.00     0.000 OA
ATOM    154   O  IDS B   8      28.986   6.668  41.5610  0.00  0.00     0.000 OA
ENDBRANCH 145 152
ENDBRANCH 140 144
ENDBRANCH 120 140
ENDBRANCH 119 123
ENDBRANCH 103 119
ENDBRANCH 102 106
ENDBRANCH 82 102
ENDBRANCH 81 85
ENDBRANCH 65 81
ENDBRANCH 64 68
ENDBRANCH 41 64
ENDBRANCH 40 44
ENDBRANCH 24 40
ENDBRANCH 23 27
ENDBRANCH 1 23
TORSDOF 31
ENDMDL
MODEL 91
REMARK VINA RESULT:      -6.6      8.602     16.694
ROOT
ATOM      1  C1  SGN B   1      25.795  16.818  22.8490  0.00  0.00     0.000 C
ATOM      2  C2  SGN B   1      27.221  17.111  23.3410  0.00  0.00     0.000 C
ATOM      3  C3  SGN B   1      27.790  18.353  22.6470  0.00  0.00     0.000 C
ATOM      4  C4  SGN B   1      27.732  18.183  21.1320  0.00  0.00     0.000 C
ATOM      5  C5  SGN B   1      26.322  17.754  20.7320  0.00  0.00     0.000 C
ATOM      6  O5  SGN B   1      25.955  16.567  21.4600  0.00  0.00     0.000 O
ATOM      7   O  SGN B   1      29.126  18.596  23.0710  0.00  0.00     0.000 O
ATOM      9  HD  SGN B   1      29.196  17.812  22.7090  0.00  0.00     0.000 HD
ATOM      9   O  SGN B   1      28.066  19.408  20.5070  0.00  0.00     0.000 O
ATOM     11  HD  SGN B   1      28.136  18.625  20.1460  0.00  0.00     0.000 HD
ENDROOT
BRANCH 2 13
ATOM     11   N  SGN B   1      27.402  16.009  24.3050  0.00  0.00     0.000 N
ATOM     13  HD  SGN B   1      26.737  16.559  24.3840  0.00  0.00     0.000 HD
ATOM     13   S  SGN B   1      26.888  16.106  25.8270  0.00  0.00     0.000 S
ATOM     14   O  SGN B   1      26.230  17.335  26.0400  0.00  0.00     0.000 OA
ATOM     15   O  SGN B   1      26.224  14.890  26.1560  0.00  0.00     0.000 OA
ATOM     16   O  SGN B   1      28.279  16.077  26.5330  0.00  0.00     0.000 OA
ENDBRANCH 2 13
BRANCH 5 17
ATOM     17   C  SGN B   1      26.168  17.447  19.2630  0.00  0.00     0.000 C
ATOM     18   O  SGN B   1      27.296  16.694  18.7730  0.00  0.00     0.000 O
ATOM     19   S  SGN B   1      27.910  17.179  17.3780  0.00  0.00     0.000 S
ATOM     20   O  SGN B   1      28.849  16.144  17.0010  0.00  0.00     0.000 OA
ATOM     21   O  SGN B   1      26.766  17.269  16.5020  0.00  0.00     0.000 OA
ATOM     22   O  SGN B   1      28.535  18.452  17.6630  0.00  0.00     0.000 OA
ENDBRANCH 5 17
BRANCH 1 23
ATOM     23  O4  IDS B   2      24.497  17.119  23.1410  0.00  0.00     0.000 O
BRANCH 23 27
ATOM     24  C1  IDS B   2      20.908  19.200  23.0030  0.00  0.00     0.000 C
ATOM     25  C2  IDS B   2      22.116  19.911  22.3550  0.00  0.00     0.000 C
ATOM     26  C3  IDS B   2      23.293  18.951  22.1950  0.00  0.00     0.000 C
ATOM     27  C4  IDS B   2      23.702  18.270  23.4940  0.00  0.00     0.000 C
ATOM     28  C5  IDS B   2      22.451  17.947  24.3360  0.00  0.00     0.000 C
ATOM     29  O5  IDS B   2      21.286  17.919  23.5250  0.00  0.00     0.000 O
ATOM     30   O  IDS B   2      24.422  19.671  21.7130  0.00  0.00     0.000 O
ATOM     32  HD  IDS B   2      24.831  20.118  22.3310  0.00  0.00     0.000 HD
BRANCH 25 32
ATOM     32   O  IDS B   2      21.794  20.453  21.0120  0.00  0.00     0.000 O
ATOM     33   S  IDS B   2      21.886  22.067  20.6780  0.00  0.00     0.000 S
ATOM     34   O  IDS B   2      21.292  22.243  19.3630  0.00  0.00     0.000 OA
ATOM     35   O  IDS B   2      21.158  22.813  21.6950  0.00  0.00     0.000 OA
ATOM     36   O  IDS B   2      23.295  22.383  20.6660  0.00  0.00     0.000 OA
ENDBRANCH 25 32
BRANCH 28 37
ATOM     37   C  IDS B   2      22.473  16.668  25.1970  0.00  0.00     0.000 C
ATOM     38   O  IDS B   2      21.850  15.759  24.7010  0.00  0.00     0.000 OA
ATOM     39   O  IDS B   2      23.101  16.490  26.2700  0.00  0.00     0.000 OA
ENDBRANCH 28 37
BRANCH 24 40
ATOM     40  O4  SUS B   3      19.790  19.899  23.2900  0.00  0.00     0.000 O
BRANCH 40 44
ATOM     41  C1  SUS B   3      15.873  18.694  22.4270  0.00  0.00     0.000 C
ATOM     42  C2  SUS B   3      16.247  18.863  23.9130  0.00  0.00     0.000 C
ATOM     43  C3  SUS B   3      17.492  19.740  24.0210  0.00  0.00     0.000 C
ATOM     44  C4  SUS B   3      18.597  19.132  23.1710  0.00  0.00     0.000 C
ATOM     45  C5  SUS B   3      18.144  19.106  21.7250  0.00  0.00     0.000 C
ATOM     46  O5  SUS B   3      16.982  18.257  21.6330  0.00  0.00     0.000 O
BRANCH 42 49
ATOM     47   N  SUS B   3      15.012  18.089  24.1230  0.00  0.00     0.000 N
ATOM     49  HD  SUS B   3      14.364  18.234  23.5670  0.00  0.00     0.000 HD
ATOM     49   S  SUS B   3      14.434  18.240  25.6100  0.00  0.00     0.000 S
ATOM     50   O  SUS B   3      14.195  19.600  25.8960  0.00  0.00     0.000 OA
ATOM     51   O  SUS B   3      13.099  17.492  25.3610  0.00  0.00     0.000 OA
ATOM     52   O  SUS B   3      15.249  17.519  26.5040  0.00  0.00     0.000 OA
ENDBRANCH 42 49
BRANCH 43 53
ATOM     53   O  SUS B   3      17.907  19.768  25.4370  0.00  0.00     0.000 O
ATOM     54   S  SUS B   3      17.942  21.234  26.1790  0.00  0.00     0.000 S
ATOM     55   O  SUS B   3      16.563  21.663  26.3640  0.00  0.00     0.000 OA
ATOM     56   O  SUS B   3      18.650  20.983  27.4220  0.00  0.00     0.000 OA
ATOM     57   O  SUS B   3      18.663  22.138  25.2770  0.00  0.00     0.000 OA
ENDBRANCH 43 53
BRANCH 45 58
ATOM     58   C  SUS B   3      19.232  18.605  20.8000  0.00  0.00     0.000 C
ATOM     59   S  SUS B   3      20.195  16.462  19.7670  0.00  0.00     0.000 S
ATOM     60   O  SUS B   3      19.031  17.205  20.5420  0.00  0.00     0.000 O
ATOM     61   O  SUS B   3      21.225  16.232  20.7620  0.00  0.00     0.000 OA
ATOM     62   O  SUS B   3      19.524  15.253  19.3710  0.00  0.00     0.000 OA
ATOM     63   O  SUS B   3      20.560  17.331  18.7050  0.00  0.00     0.000 OA
ENDBRANCH 45 58
BRANCH 41 64
ATOM     64  O4  IDS B   4      15.194  19.766  21.9010  0.00  0.00     0.000 O
BRANCH 64 68
ATOM     65  C1  IDS B   4      12.201  21.015  20.2400  0.00  0.00     0.000 C
ATOM     66  C2  IDS B   4      12.166  19.680  20.9950  0.00  0.00     0.000 C
ATOM     67  C3  IDS B   4      13.335  18.757  20.6940  0.00  0.00     0.000 C
ATOM     68  C4  IDS B   4      14.656  19.496  20.5880  0.00  0.00     0.000 C
ATOM     69  C5  IDS B   4      14.430  20.760  19.7480  0.00  0.00     0.000 C
ATOM     70  O5  IDS B   4      13.480  21.600  20.4090  0.00  0.00     0.000 O
ATOM     71   O  IDS B   4      13.053  18.106  19.4730  0.00  0.00     0.000 O
ATOM     73  HD  IDS B   4      12.862  18.557  20.1870  0.00  0.00     0.000 HD
BRANCH 66 73
ATOM     73   O  IDS B   4      12.240  19.950  22.4370  0.00  0.00     0.000 O
ATOM     74   S  IDS B   4      10.913  19.692  23.3260  0.00  0.00     0.000 S
ATOM     75   O  IDS B   4       9.863  20.494  22.7350  0.00  0.00     0.000 OA
ATOM     76   O  IDS B   4      11.336  20.146  24.6270  0.00  0.00     0.000 OA
ATOM     77   O  IDS B   4      10.664  18.273  23.2440  0.00  0.00     0.000 OA
ENDBRANCH 66 73
BRANCH 69 78
ATOM     78   C  IDS B   4      15.706  21.498  19.3640  0.00  0.00     0.000 C
ATOM     79   O  IDS B   4      15.764  22.713  19.5480  0.00  0.00     0.000 OA
ATOM     80   O  IDS B   4      16.685  20.833  18.9780  0.00  0.00     0.000 OA
ENDBRANCH 69 78
BRANCH 65 81
ATOM     81  O4  SGN B   5      11.779  20.823  18.9590  0.00  0.00     0.000 O
BRANCH 81 85
ATOM     82  C1  SGN B   5      10.509  23.068  15.6450  0.00  0.00     0.000 C
ATOM     83  C2  SGN B   5      11.342  23.801  16.7070  0.00  0.00     0.000 C
ATOM     84  C3  SGN B   5      12.095  22.777  17.5670  0.00  0.00     0.000 C
ATOM     85  C4  SGN B   5      11.100  21.795  18.1610  0.00  0.00     0.000 C
ATOM     86  C5  SGN B   5      10.354  21.115  17.0150  0.00  0.00     0.000 C
ATOM     87  O5  SGN B   5       9.655  22.122  16.2590  0.00  0.00     0.000 O
ATOM     88   O  SGN B   5      12.817  23.440  18.5810  0.00  0.00     0.000 O
ATOM     90  HD  SGN B   5      13.154  23.125  17.8490  0.00  0.00     0.000 HD
BRANCH 83 92
ATOM     90   N  SGN B   5      10.765  25.048  16.1670  0.00  0.00     0.000 N
ATOM     92  HD  SGN B   5      10.002  25.223  16.5380  0.00  0.00     0.000 HD
ATOM     92   S  SGN B   5      11.733  26.306  15.9830  0.00  0.00     0.000 S
ATOM     93   O  SGN B   5      10.885  27.333  15.4580  0.00  0.00     0.000 OA
ATOM     94   O  SGN B   5      12.377  26.485  17.2400  0.00  0.00     0.000 OA
ATOM     95   O  SGN B   5      12.785  25.841  15.0000  0.00  0.00     0.000 OA
ENDBRANCH 83 92
BRANCH 86 96
ATOM     96   C  SGN B   5       9.330  20.093  17.4620  0.00  0.00     0.000 C
ATOM     97   O  SGN B   5       9.460  18.888  16.7040  0.00  0.00     0.000 O
ATOM     98   S  SGN B   5       9.559  17.529  17.5500  0.00  0.00     0.000 S
ATOM     99   O  SGN B   5       9.474  16.512  16.5300  0.00  0.00     0.000 OA
ATOM    100   O  SGN B   5      10.788  17.556  18.2590  0.00  0.00     0.000 OA
ATOM    101   O  SGN B   5       8.421  17.563  18.4100  0.00  0.00     0.000 OA
ENDBRANCH 86 96
BRANCH 82 102
ATOM    102  O4  IDS B   6      11.282  22.465  14.6970  0.00  0.00     0.000 O
BRANCH 102 106
ATOM    103  C1  IDS B   6      12.652  21.901  11.3710  0.00  0.00     0.000 C
ATOM    104  C2  IDS B   6      12.666  23.304  11.9990  0.00  0.00     0.000 C
ATOM    105  C3  IDS B   6      11.355  23.741  12.6240  0.00  0.00     0.000 C
ATOM    106  C4  IDS B   6      10.670  22.625  13.3920  0.00  0.00     0.000 C
ATOM    107  C5  IDS B   6      10.748  21.322  12.5910  0.00  0.00     0.000 C
ATOM    108  O5  IDS B   6      12.097  20.969  12.2790  0.00  0.00     0.000 O
ATOM    109   O  IDS B   6      10.516  24.232  11.5920  0.00  0.00     0.000 O
ATOM    111  HD  IDS B   6      10.824  23.855  10.8760  0.00  0.00     0.000 HD
BRANCH 104 111
ATOM    111   O  IDS B   6      13.646  23.328  13.0960  0.00  0.00     0.000 O
ATOM    112   S  IDS B   6      15.101  23.921  12.7920  0.00  0.00     0.000 S
ATOM    113   O  IDS B   6      15.615  23.094  11.7110  0.00  0.00     0.000 OA
ATOM    114   O  IDS B   6      14.963  25.344  12.4620  0.00  0.00     0.000 OA
ATOM    115   O  IDS B   6      15.728  23.670  14.0720  0.00  0.00     0.000 OA
ENDBRANCH 104 111
BRANCH 107 116
ATOM    116   C  IDS B   6      10.091  20.201  13.3850  0.00  0.00     0.000 C
ATOM    117   O  IDS B   6      10.826  19.392  13.8920  0.00  0.00     0.000 OA
ATOM    118   O  IDS B   6       8.877  20.125  13.4910  0.00  0.00     0.000 OA
ENDBRANCH 107 116
BRANCH 103 119
ATOM    119  O4  SGN B   7      12.105  22.104  10.1450  0.00  0.00     0.000 O
BRANCH 119 123
ATOM    120  C1  SGN B   7      11.944  19.795   6.6620  0.00  0.00     0.000 C
ATOM    121  C2  SGN B   7      10.638  19.978   7.4580  0.00  0.00     0.000 C
ATOM    122  C3  SGN B   7      10.768  21.145   8.4440  0.00  0.00     0.000 C
ATOM    123  C4  SGN B   7      11.996  20.947   9.3160  0.00  0.00     0.000 C
ATOM    124  C5  SGN B   7      13.241  20.767   8.4310  0.00  0.00     0.000 C
ATOM    125  O5  SGN B   7      13.075  19.658   7.5200  0.00  0.00     0.000 O
ATOM    126   O  SGN B   7       9.575  21.224   9.2330  0.00  0.00     0.000 O
ATOM    128  HD  SGN B   7       9.985  20.880   8.5520  0.00  0.00     0.000 HD
BRANCH 121 130
ATOM    128   N  SGN B   7       9.807  19.942   6.2510  0.00  0.00     0.000 N
ATOM    130  HD  SGN B   7      10.120  19.160   6.0510  0.00  0.00     0.000 HD
ATOM    130   S  SGN B   7       8.505  19.003   6.1320  0.00  0.00     0.000 S
ATOM    131   O  SGN B   7       7.745  19.270   7.3050  0.00  0.00     0.000 OA
ATOM    132   O  SGN B   7       7.933  19.194   4.8480  0.00  0.00     0.000 OA
ATOM    133   O  SGN B   7       9.182  17.592   6.0580  0.00  0.00     0.000 OA
ENDBRANCH 121 130
BRANCH 124 134
ATOM    134   C  SGN B   7      14.491  20.449   9.1990  0.00  0.00     0.000 C
ATOM    135   O  SGN B   7      15.084  19.266   8.6380  0.00  0.00     0.000 O
ATOM    136   S  SGN B   7      16.489  18.851   9.2050  0.00  0.00     0.000 S
ATOM    137   O  SGN B   7      16.827  17.597   8.5750  0.00  0.00     0.000 OA
ATOM    138   O  SGN B   7      16.300  18.733  10.6330  0.00  0.00     0.000 OA
ATOM    139   O  SGN B   7      17.332  19.964   8.7980  0.00  0.00     0.000 OA
ENDBRANCH 124 134
BRANCH 120 140
ATOM    140  O4  IDS B   8      12.473  20.616   5.7480  0.00  0.00     0.000 O
BRANCH 140 144
ATOM    141  C1  IDS B   8      14.376  22.280   3.1850  0.00  0.00     0.000 C
ATOM    142  C2  IDS B   8      14.092  22.974   4.5480  0.00  0.00     0.000 C
ATOM    143  C3  IDS B   8      12.611  22.900   4.9650  0.00  0.00     0.000 C
ATOM    144  C4  IDS B   8      12.018  21.512   4.7280  0.00  0.00     0.000 C
ATOM    145  C5  IDS B   8      12.431  20.990   3.3430  0.00  0.00     0.000 C
ATOM    146  O5  IDS B   8      13.848  20.960   3.1930  0.00  0.00     0.000 O
BRANCH 142 147
ATOM    147   O  IDS B   8      14.884  22.311   5.6160  0.00  0.00     0.000 O
ATOM    148   S  IDS B   8      16.101  23.086   6.3580  0.00  0.00     0.000 S
ATOM    149   O  IDS B   8      16.451  24.230   5.5460  0.00  0.00     0.000 OA
ATOM    150   O  IDS B   8      15.585  23.459   7.6620  0.00  0.00     0.000 OA
ATOM    151   O  IDS B   8      17.181  22.121   6.4280  0.00  0.00     0.000 OA
ENDBRANCH 142 147
BRANCH 145 152
ATOM    152   C  IDS B   8      11.954  19.574   3.0880  0.00  0.00     0.000 C
ATOM    153   O  IDS B   8      12.765  18.711   2.7730  0.00  0.00     0.000 OA
ATOM    154   O  IDS B   8      10.773  19.304   3.2190  0.00  0.00     0.000 OA
ENDBRANCH 145 152
ENDBRANCH 140 144
ENDBRANCH 120 140
ENDBRANCH 119 123
ENDBRANCH 103 119
ENDBRANCH 102 106
ENDBRANCH 82 102
ENDBRANCH 81 85
ENDBRANCH 65 81
ENDBRANCH 64 68
ENDBRANCH 41 64
ENDBRANCH 40 44
ENDBRANCH 24 40
ENDBRANCH 23 27
ENDBRANCH 1 23
TORSDOF 31
ENDMDL
MODEL 92
REMARK VINA RESULT:      -6.6      8.574     13.194
ROOT
ATOM      1  C1  SGN B   1      28.197  10.923  14.4110  0.00  0.00     0.000 C
ATOM      2  C2  SGN B   1      29.525  10.541  15.0840  0.00  0.00     0.000 C
ATOM      3  C3  SGN B   1      30.207   9.395  14.3280  0.00  0.00     0.000 C
ATOM      4  C4  SGN B   1      29.262   8.204  14.2140  0.00  0.00     0.000 C
ATOM      5  C5  SGN B   1      27.917   8.683  13.6710  0.00  0.00     0.000 C
ATOM      6  O5  SGN B   1      27.411   9.742  14.5060  0.00  0.00     0.000 O
ATOM      7   O  SGN B   1      31.413   9.014  14.9790  0.00  0.00     0.000 O
ATOM      9  HD  SGN B   1      30.824   8.854  15.5930  0.00  0.00     0.000 HD
ATOM      9   O  SGN B   1      29.824   7.239  13.3430  0.00  0.00     0.000 O
ATOM     11  HD  SGN B   1      29.234   7.079  13.9570  0.00  0.00     0.000 HD
ENDROOT
BRANCH 2 13
ATOM     11   N  SGN B   1      29.337  11.580  16.1130  0.00  0.00     0.000 N
ATOM     13  HD  SGN B   1      29.537  11.798  15.2990  0.00  0.00     0.000 HD
ATOM     13   S  SGN B   1      30.086  13.002  16.0460  0.00  0.00     0.000 S
ATOM     14   O  SGN B   1      30.863  13.087  14.8710  0.00  0.00     0.000 OA
ATOM     15   O  SGN B   1      29.138  14.025  16.3330  0.00  0.00     0.000 OA
ATOM     16   O  SGN B   1      30.986  12.840  17.3100  0.00  0.00     0.000 OA
ENDBRANCH 2 13
BRANCH 5 17
ATOM     17   C  SGN B   1      26.859   7.609  13.6160  0.00  0.00     0.000 C
ATOM     18   O  SGN B   1      25.886   7.898  12.5920  0.00  0.00     0.000 O
ATOM     19   S  SGN B   1      24.353   7.706  13.0070  0.00  0.00     0.000 S
ATOM     20   O  SGN B   1      23.612   7.823  11.7700  0.00  0.00     0.000 OA
ATOM     21   O  SGN B   1      24.308   6.383  13.5850  0.00  0.00     0.000 OA
ATOM     22   O  SGN B   1      24.081   8.769  13.9490  0.00  0.00     0.000 OA
ENDBRANCH 5 17
BRANCH 1 23
ATOM     23  O4  IDS B   2      27.704  11.756  13.4510  0.00  0.00     0.000 O
BRANCH 23 27
ATOM     24  C1  IDS B   2      25.569  15.196  14.3710  0.00  0.00     0.000 C
ATOM     25  C2  IDS B   2      24.836  13.863  14.6410  0.00  0.00     0.000 C
ATOM     26  C3  IDS B   2      25.800  12.683  14.5550  0.00  0.00     0.000 C
ATOM     27  C4  IDS B   2      26.566  12.619  13.2410  0.00  0.00     0.000 C
ATOM     28  C5  IDS B   2      26.923  14.043  12.7690  0.00  0.00     0.000 C
ATOM     29  O5  IDS B   2      26.885  14.960  13.8520  0.00  0.00     0.000 O
ATOM     30   O  IDS B   2      25.067  11.470  14.6850  0.00  0.00     0.000 O
ATOM     32  HD  IDS B   2      24.665  11.234  13.9550  0.00  0.00     0.000 HD
BRANCH 25 32
ATOM     32   O  IDS B   2      24.207  13.831  15.9840  0.00  0.00     0.000 O
ATOM     33   S  IDS B   2      22.568  13.821  16.1790  0.00  0.00     0.000 S
ATOM     34   O  IDS B   2      22.328  14.016  17.6010  0.00  0.00     0.000 OA
ATOM     35   O  IDS B   2      21.980  14.893  15.3890  0.00  0.00     0.000 OA
ATOM     36   O  IDS B   2      22.132  12.514  15.7460  0.00  0.00     0.000 OA
ENDBRANCH 25 32
BRANCH 28 37
ATOM     37   C  IDS B   2      28.254  14.239  12.0140  0.00  0.00     0.000 C
ATOM     38   O  IDS B   2      29.130  14.682  12.7190  0.00  0.00     0.000 OA
ATOM     39   O  IDS B   2      28.498  13.933  10.8210  0.00  0.00     0.000 OA
ENDBRANCH 28 37
BRANCH 24 40
ATOM     40  O4  SUS B   3      24.873  16.351  14.3350  0.00  0.00     0.000 O
BRANCH 40 44
ATOM     41  C1  SUS B   3      25.979  20.222  15.4920  0.00  0.00     0.000 C
ATOM     42  C2  SUS B   3      26.713  19.612  14.2800  0.00  0.00     0.000 C
ATOM     43  C3  SUS B   3      25.883  18.458  13.7200  0.00  0.00     0.000 C
ATOM     44  C4  SUS B   3      25.602  17.466  14.8370  0.00  0.00     0.000 C
ATOM     45  C5  SUS B   3      24.802  18.160  15.9200  0.00  0.00     0.000 C
ATOM     46  O5  SUS B   3      25.604  19.232  16.4550  0.00  0.00     0.000 O
BRANCH 42 49
ATOM     47   N  SUS B   3      27.969  20.325  14.5650  0.00  0.00     0.000 N
ATOM     49  HD  SUS B   3      27.946  20.910  15.2030  0.00  0.00     0.000 HD
ATOM     49   S  SUS B   3      28.588  21.029  13.2660  0.00  0.00     0.000 S
ATOM     50   O  SUS B   3      27.649  21.925  12.7130  0.00  0.00     0.000 OA
ATOM     51   O  SUS B   3      29.714  21.802  13.9990  0.00  0.00     0.000 OA
ATOM     52   O  SUS B   3      29.131  20.046  12.4150  0.00  0.00     0.000 OA
ENDBRANCH 42 49
BRANCH 43 53
ATOM     53   O  SUS B   3      26.672  17.807  12.6560  0.00  0.00     0.000 O
ATOM     54   S  SUS B   3      26.097  17.921  11.1200  0.00  0.00     0.000 S
ATOM     55   O  SUS B   3      26.278  19.300  10.6880  0.00  0.00     0.000 OA
ATOM     56   O  SUS B   3      26.895  16.965  10.3740  0.00  0.00     0.000 OA
ATOM     57   O  SUS B   3      24.677  17.566  11.1810  0.00  0.00     0.000 OA
ENDBRANCH 43 53
BRANCH 45 58
ATOM     58   C  SUS B   3      24.397  17.208  17.0230  0.00  0.00     0.000 C
ATOM     59   S  SUS B   3      25.283  16.044  19.1320  0.00  0.00     0.000 S
ATOM     60   O  SUS B   3      25.438  17.154  18.0120  0.00  0.00     0.000 O
ATOM     61   O  SUS B   3      25.686  14.805  18.4960  0.00  0.00     0.000 OA
ATOM     62   O  SUS B   3      26.238  16.508  20.1020  0.00  0.00     0.000 OA
ATOM     63   O  SUS B   3      23.924  16.105  19.5400  0.00  0.00     0.000 OA
ENDBRANCH 45 58
BRANCH 41 64
ATOM     64  O4  IDS B   4      24.967  21.084  15.1490  0.00  0.00     0.000 O
BRANCH 64 68
ATOM     65  C1  IDS B   4      22.717  23.950  15.1890  0.00  0.00     0.000 C
ATOM     66  C2  IDS B   4      24.193  24.132  14.8140  0.00  0.00     0.000 C
ATOM     67  C3  IDS B   4      25.169  23.436  15.7470  0.00  0.00     0.000 C
ATOM     68  C4  IDS B   4      24.694  22.061  16.1780  0.00  0.00     0.000 C
ATOM     69  C5  IDS B   4      23.207  22.162  16.5450  0.00  0.00     0.000 C
ATOM     70  O5  IDS B   4      22.465  22.571  15.3940  0.00  0.00     0.000 O
ATOM     71   O  IDS B   4      25.327  24.263  16.8810  0.00  0.00     0.000 O
ATOM     73  HD  IDS B   4      25.103  24.080  16.0650  0.00  0.00     0.000 HD
BRANCH 66 73
ATOM     73   O  IDS B   4      24.422  23.534  13.4910  0.00  0.00     0.000 O
ATOM     74   S  IDS B   4      24.879  24.511  12.2860  0.00  0.00     0.000 S
ATOM     75   O  IDS B   4      23.866  25.540  12.1860  0.00  0.00     0.000 OA
ATOM     76   O  IDS B   4      24.909  23.606  11.1650  0.00  0.00     0.000 OA
ATOM     77   O  IDS B   4      26.173  25.021  12.6730  0.00  0.00     0.000 OA
ENDBRANCH 66 73
BRANCH 69 78
ATOM     78   C  IDS B   4      22.636  20.915  17.2060  0.00  0.00     0.000 C
ATOM     79   O  IDS B   4      21.751  20.290  16.6230  0.00  0.00     0.000 OA
ATOM     80   O  IDS B   4      23.155  20.510  18.2620  0.00  0.00     0.000 OA
ENDBRANCH 69 78
BRANCH 65 81
ATOM     81  O4  SGN B   5      22.403  24.789  16.2150  0.00  0.00     0.000 O
BRANCH 81 85
ATOM     82  C1  SGN B   5      19.156  26.838  17.9180  0.00  0.00     0.000 C
ATOM     83  C2  SGN B   5      19.576  25.519  18.5840  0.00  0.00     0.000 C
ATOM     84  C3  SGN B   5      21.006  25.159  18.1560  0.00  0.00     0.000 C
ATOM     85  C4  SGN B   5      21.077  25.112  16.6400  0.00  0.00     0.000 C
ATOM     86  C5  SGN B   5      20.663  26.477  16.0970  0.00  0.00     0.000 C
ATOM     87  O5  SGN B   5      19.311  26.749  16.5140  0.00  0.00     0.000 O
ATOM     88   O  SGN B   5      21.378  23.920  18.7180  0.00  0.00     0.000 O
ATOM     90  HD  SGN B   5      21.623  24.698  19.0100  0.00  0.00     0.000 HD
BRANCH 83 92
ATOM     90   N  SGN B   5      18.515  24.696  19.1970  0.00  0.00     0.000 N
ATOM     92  HD  SGN B   5      18.644  23.855  19.0400  0.00  0.00     0.000 HD
ATOM     92   S  SGN B   5      18.063  25.044  20.6900  0.00  0.00     0.000 S
ATOM     93   O  SGN B   5      17.046  24.080  20.9860  0.00  0.00     0.000 OA
ATOM     94   O  SGN B   5      19.260  25.076  21.4580  0.00  0.00     0.000 OA
ATOM     95   O  SGN B   5      17.538  26.461  20.6130  0.00  0.00     0.000 OA
ENDBRANCH 83 92
BRANCH 86 96
ATOM     96   C  SGN B   5      20.698  26.582  14.5860  0.00  0.00     0.000 C
ATOM     97   O  SGN B   5      19.840  25.604  13.9950  0.00  0.00     0.000 O
ATOM     98   S  SGN B   5      18.796  26.147  12.9050  0.00  0.00     0.000 S
ATOM     99   O  SGN B   5      18.240  24.931  12.3630  0.00  0.00     0.000 OA
ATOM    100   O  SGN B   5      17.864  26.974  13.5830  0.00  0.00     0.000 OA
ATOM    101   O  SGN B   5      19.600  26.866  11.9710  0.00  0.00     0.000 OA
ENDBRANCH 86 96
BRANCH 82 102
ATOM    102  O4  IDS B   6      19.840  27.912  18.4040  0.00  0.00     0.000 O
BRANCH 102 106
ATOM    103  C1  IDS B   6      20.218  31.139  20.0480  0.00  0.00     0.000 C
ATOM    104  C2  IDS B   6      19.354  30.033  20.6760  0.00  0.00     0.000 C
ATOM    105  C3  IDS B   6      18.388  29.354  19.7250  0.00  0.00     0.000 C
ATOM    106  C4  IDS B   6      18.997  29.091  18.3590  0.00  0.00     0.000 C
ATOM    107  C5  IDS B   6      19.798  30.316  17.9050  0.00  0.00     0.000 C
ATOM    108  O5  IDS B   6      20.809  30.671  18.8510  0.00  0.00     0.000 O
ATOM    109   O  IDS B   6      17.233  30.168  19.6130  0.00  0.00     0.000 O
ATOM    111  HD  IDS B   6      17.512  30.957  19.8350  0.00  0.00     0.000 HD
BRANCH 104 111
ATOM    111   O  IDS B   6      20.233  28.961  21.1690  0.00  0.00     0.000 O
ATOM    112   S  IDS B   6      20.193  28.613  22.7310  0.00  0.00     0.000 S
ATOM    113   O  IDS B   6      20.544  29.860  23.3930  0.00  0.00     0.000 OA
ATOM    114   O  IDS B   6      18.857  28.101  23.0590  0.00  0.00     0.000 OA
ATOM    115   O  IDS B   6      21.235  27.611  22.7740  0.00  0.00     0.000 OA
ENDBRANCH 104 111
BRANCH 107 116
ATOM    116   C  IDS B   6      20.435  30.029  16.5520  0.00  0.00     0.000 C
ATOM    117   O  IDS B   6      21.636  29.937  16.5260  0.00  0.00     0.000 OA
ATOM    118   O  IDS B   6      19.757  29.908  15.5440  0.00  0.00     0.000 OA
ENDBRANCH 107 116
BRANCH 103 119
ATOM    119  O4  SGN B   7      19.404  32.225  20.0570  0.00  0.00     0.000 O
BRANCH 119 123
ATOM    120  C1  SGN B   7      19.833  36.203  18.8370  0.00  0.00     0.000 C
ATOM    121  C2  SGN B   7      19.029  35.259  17.9230  0.00  0.00     0.000 C
ATOM    122  C3  SGN B   7      18.627  33.988  18.6820  0.00  0.00     0.000 C
ATOM    123  C4  SGN B   7      19.859  33.346  19.2980  0.00  0.00     0.000 C
ATOM    124  C5  SGN B   7      20.593  34.367  20.1840  0.00  0.00     0.000 C
ATOM    125  O5  SGN B   7      20.953  35.545  19.4280  0.00  0.00     0.000 O
ATOM    126   O  SGN B   7      17.969  33.093  17.7780  0.00  0.00     0.000 O
ATOM    128  HD  SGN B   7      18.289  33.884  17.9280  0.00  0.00     0.000 HD
BRANCH 121 130
ATOM    128   N  SGN B   7      18.342  36.457  17.4350  0.00  0.00     0.000 N
ATOM    130  HD  SGN B   7      19.043  36.683  16.9800  0.00  0.00     0.000 HD
ATOM    130   S  SGN B   7      17.816  36.589  15.9190  0.00  0.00     0.000 S
ATOM    131   O  SGN B   7      17.071  35.400  15.6780  0.00  0.00     0.000 OA
ATOM    132   O  SGN B   7      17.207  37.860  15.7660  0.00  0.00     0.000 OA
ATOM    133   O  SGN B   7      19.180  36.710  15.1580  0.00  0.00     0.000 OA
ENDBRANCH 121 130
BRANCH 124 134
ATOM    134   C  SGN B   7      21.889  33.862  20.7460  0.00  0.00     0.000 C
ATOM    135   O  SGN B   7      21.687  33.527  22.1300  0.00  0.00     0.000 O
ATOM    136   S  SGN B   7      22.890  32.833  22.8640  0.00  0.00     0.000 S
ATOM    137   O  SGN B   7      22.496  32.693  24.2460  0.00  0.00     0.000 OA
ATOM    138   O  SGN B   7      24.010  33.728  22.6850  0.00  0.00     0.000 OA
ATOM    139   O  SGN B   7      23.007  31.571  22.1510  0.00  0.00     0.000 OA
ENDBRANCH 124 134
BRANCH 120 140
ATOM    140  O4  IDS B   8      19.400  36.879  19.9060  0.00  0.00     0.000 O
BRANCH 140 144
ATOM    141  C1  IDS B   8      17.708  38.240  22.7780  0.00  0.00     0.000 C
ATOM    142  C2  IDS B   8      17.018  38.207  21.3850  0.00  0.00     0.000 C
ATOM    143  C3  IDS B   8      17.912  38.753  20.2560  0.00  0.00     0.000 C
ATOM    144  C4  IDS B   8      19.346  38.238  20.3600  0.00  0.00     0.000 C
ATOM    145  C5  IDS B   8      19.837  38.329  21.8130  0.00  0.00     0.000 C
ATOM    146  O5  IDS B   8      18.984  37.615  22.7040  0.00  0.00     0.000 O
BRANCH 142 147
ATOM    147   O  IDS B   8      16.675  36.803  21.0340  0.00  0.00     0.000 O
ATOM    148   S  IDS B   8      15.314  36.453  20.2240  0.00  0.00     0.000 S
ATOM    149   O  IDS B   8      14.446  37.605  20.3070  0.00  0.00     0.000 OA
ATOM    150   O  IDS B   8      15.736  36.164  18.8660  0.00  0.00     0.000 OA
ATOM    151   O  IDS B   8      14.752  35.301  20.9030  0.00  0.00     0.000 OA
ENDBRANCH 142 147
BRANCH 145 152
ATOM    152   C  IDS B   8      21.221  37.739  21.9990  0.00  0.00     0.000 C
ATOM    153   O  IDS B   8      22.165  38.203  21.3690  0.00  0.00     0.000 OA
ATOM    154   O  IDS B   8      21.384  36.825  22.7870  0.00  0.00     0.000 OA
ENDBRANCH 145 152
ENDBRANCH 140 144
ENDBRANCH 120 140
ENDBRANCH 119 123
ENDBRANCH 103 119
ENDBRANCH 102 106
ENDBRANCH 82 102
ENDBRANCH 81 85
ENDBRANCH 65 81
ENDBRANCH 64 68
ENDBRANCH 41 64
ENDBRANCH 40 44
ENDBRANCH 24 40
ENDBRANCH 23 27
ENDBRANCH 1 23
TORSDOF 31
ENDMDL
MODEL 93
REMARK VINA RESULT:      -6.6      8.282     12.058
ROOT
ATOM      1  C1  SGN B   1      28.273  10.829  14.4150  0.00  0.00     0.000 C
ATOM      2  C2  SGN B   1      29.600  10.430  15.0810  0.00  0.00     0.000 C
ATOM      3  C3  SGN B   1      30.257   9.268  14.3270  0.00  0.00     0.000 C
ATOM      4  C4  SGN B   1      29.291   8.092  14.2290  0.00  0.00     0.000 C
ATOM      5  C5  SGN B   1      27.951   8.590  13.6930  0.00  0.00     0.000 C
ATOM      6  O5  SGN B   1      27.468   9.663  14.5250  0.00  0.00     0.000 O
ATOM      7   O  SGN B   1      31.462   8.872  14.9720  0.00  0.00     0.000 O
ATOM      9  HD  SGN B   1      30.875   8.726  15.5910  0.00  0.00     0.000 HD
ATOM      9   O  SGN B   1      29.830   7.112  13.3610  0.00  0.00     0.000 O
ATOM     11  HD  SGN B   1      29.243   6.966  13.9800  0.00  0.00     0.000 HD
ENDROOT
BRANCH 2 13
ATOM     11   N  SGN B   1      29.427  11.485  16.0970  0.00  0.00     0.000 N
ATOM     13  HD  SGN B   1      29.639  11.689  15.2830  0.00  0.00     0.000 HD
ATOM     13   S  SGN B   1      30.209  12.889  16.0200  0.00  0.00     0.000 S
ATOM     14   O  SGN B   1      30.996  12.943  14.8510  0.00  0.00     0.000 OA
ATOM     15   O  SGN B   1      29.282  13.936  16.2890  0.00  0.00     0.000 OA
ATOM     16   O  SGN B   1      31.095  12.720  17.2930  0.00  0.00     0.000 OA
ENDBRANCH 2 13
BRANCH 5 17
ATOM     17   C  SGN B   1      26.874   7.533  13.6530  0.00  0.00     0.000 C
ATOM     18   O  SGN B   1      25.860   7.868  12.6860  0.00  0.00     0.000 O
ATOM     19   S  SGN B   1      24.345   7.685  13.1660  0.00  0.00     0.000 S
ATOM     20   O  SGN B   1      23.549   7.852  11.9680  0.00  0.00     0.000 OA
ATOM     21   O  SGN B   1      24.306   6.345  13.7030  0.00  0.00     0.000 OA
ATOM     22   O  SGN B   1      24.133   8.721  14.1520  0.00  0.00     0.000 OA
ENDBRANCH 5 17
BRANCH 1 23
ATOM     23  O4  IDS B   2      27.786  11.665  13.4530  0.00  0.00     0.000 O
BRANCH 23 27
ATOM     24  C1  IDS B   2      25.800  15.145  14.5360  0.00  0.00     0.000 C
ATOM     25  C2  IDS B   2      24.995  13.837  14.7050  0.00  0.00     0.000 C
ATOM     26  C3  IDS B   2      25.902  12.617  14.5680  0.00  0.00     0.000 C
ATOM     27  C4  IDS B   2      26.698  12.595  13.2700  0.00  0.00     0.000 C
ATOM     28  C5  IDS B   2      27.138  14.025  12.8970  0.00  0.00     0.000 C
ATOM     29  O5  IDS B   2      27.116  14.875  14.0340  0.00  0.00     0.000 O
ATOM     30   O  IDS B   2      25.107  11.437  14.6050  0.00  0.00     0.000 O
ATOM     32  HD  IDS B   2      24.714  11.267  13.8520  0.00  0.00     0.000 HD
BRANCH 25 32
ATOM     32   O  IDS B   2      24.330  13.755  16.0290  0.00  0.00     0.000 O
ATOM     33   S  IDS B   2      22.687  13.696  16.1760  0.00  0.00     0.000 S
ATOM     34   O  IDS B   2      22.403  13.849  17.5940  0.00  0.00     0.000 OA
ATOM     35   O  IDS B   2      22.092  14.772  15.3950  0.00  0.00     0.000 OA
ATOM     36   O  IDS B   2      22.299  12.389  15.6990  0.00  0.00     0.000 OA
ENDBRANCH 25 32
BRANCH 28 37
ATOM     37   C  IDS B   2      28.496  14.199  12.1870  0.00  0.00     0.000 C
ATOM     38   O  IDS B   2      28.469  13.845  11.0320  0.00  0.00     0.000 OA
ATOM     39   O  IDS B   2      29.539  14.708  12.6670  0.00  0.00     0.000 OA
ENDBRANCH 28 37
BRANCH 24 40
ATOM     40  O4  SUS B   3      25.163  16.334  14.5560  0.00  0.00     0.000 O
BRANCH 40 44
ATOM     41  C1  SUS B   3      26.390  20.041  16.0730  0.00  0.00     0.000 C
ATOM     42  C2  SUS B   3      27.203  19.454  14.9010  0.00  0.00     0.000 C
ATOM     43  C3  SUS B   3      26.364  18.398  14.1860  0.00  0.00     0.000 C
ATOM     44  C4  SUS B   3      25.906  17.362  15.2010  0.00  0.00     0.000 C
ATOM     45  C5  SUS B   3      25.045  18.045  16.2430  0.00  0.00     0.000 C
ATOM     46  O5  SUS B   3      25.855  19.023  16.9260  0.00  0.00     0.000 O
BRANCH 42 49
ATOM     47   N  SUS B   3      27.663  20.659  14.1890  0.00  0.00     0.000 N
ATOM     49  HD  SUS B   3      27.377  20.762  13.3790  0.00  0.00     0.000 HD
ATOM     49   S  SUS B   3      29.259  20.795  14.1740  0.00  0.00     0.000 S
ATOM     50   O  SUS B   3      29.833  19.649  13.5860  0.00  0.00     0.000 OA
ATOM     51   O  SUS B   3      29.327  22.000  13.2010  0.00  0.00     0.000 OA
ATOM     52   O  SUS B   3      29.709  21.165  15.4570  0.00  0.00     0.000 OA
ENDBRANCH 42 49
BRANCH 43 53
ATOM     53   O  SUS B   3      27.214  17.758  13.1640  0.00  0.00     0.000 O
ATOM     54   S  SUS B   3      26.879  18.096  11.5900  0.00  0.00     0.000 S
ATOM     55   O  SUS B   3      27.275  19.476  11.3470  0.00  0.00     0.000 OA
ATOM     56   O  SUS B   3      27.659  17.122  10.8470  0.00  0.00     0.000 OA
ATOM     57   O  SUS B   3      25.433  17.922  11.4280  0.00  0.00     0.000 OA
ENDBRANCH 43 53
BRANCH 45 58
ATOM     58   C  SUS B   3      24.468  17.059  17.2350  0.00  0.00     0.000 C
ATOM     59   S  SUS B   3      25.026  15.781  19.3900  0.00  0.00     0.000 S
ATOM     60   O  SUS B   3      25.361  16.932  18.3540  0.00  0.00     0.000 O
ATOM     61   O  SUS B   3      25.484  14.558  18.7590  0.00  0.00     0.000 OA
ATOM     62   O  SUS B   3      25.848  16.174  20.5020  0.00  0.00     0.000 OA
ATOM     63   O  SUS B   3      23.625  15.864  19.6100  0.00  0.00     0.000 OA
ENDBRANCH 45 58
BRANCH 41 64
ATOM     64  O4  IDS B   4      25.475  20.991  15.6900  0.00  0.00     0.000 O
BRANCH 64 68
ATOM     65  C1  IDS B   4      23.620  24.126  15.7790  0.00  0.00     0.000 C
ATOM     66  C2  IDS B   4      25.148  24.129  15.9060  0.00  0.00     0.000 C
ATOM     67  C3  IDS B   4      25.699  23.103  16.8810  0.00  0.00     0.000 C
ATOM     68  C4  IDS B   4      24.981  21.769  16.8020  0.00  0.00     0.000 C
ATOM     69  C5  IDS B   4      23.472  22.043  16.7340  0.00  0.00     0.000 C
ATOM     70  O5  IDS B   4      23.184  22.797  15.5550  0.00  0.00     0.000 O
ATOM     71   O  IDS B   4      25.563  23.643  18.1800  0.00  0.00     0.000 O
ATOM     73  HD  IDS B   4      25.597  23.671  17.3150  0.00  0.00     0.000 HD
BRANCH 66 73
ATOM     73   O  IDS B   4      25.732  23.784  14.6030  0.00  0.00     0.000 O
ATOM     74   S  IDS B   4      26.705  24.866  13.8970  0.00  0.00     0.000 S
ATOM     75   O  IDS B   4      25.939  26.089  13.7770  0.00  0.00     0.000 OA
ATOM     76   O  IDS B   4      26.992  24.229  12.6370  0.00  0.00     0.000 OA
ATOM     77   O  IDS B   4      27.845  24.990  14.7730  0.00  0.00     0.000 OA
ENDBRANCH 66 73
BRANCH 69 78
ATOM     78   C  IDS B   4      22.601  20.802  16.8720  0.00  0.00     0.000 C
ATOM     79   O  IDS B   4      22.724  20.102  17.8760  0.00  0.00     0.000 OA
ATOM     80   O  IDS B   4      21.719  20.595  16.0180  0.00  0.00     0.000 OA
ENDBRANCH 69 78
BRANCH 65 81
ATOM     81  O4  SGN B   5      23.075  24.779  16.8430  0.00  0.00     0.000 O
BRANCH 81 85
ATOM     82  C1  SGN B   5      19.576  26.754  18.0660  0.00  0.00     0.000 C
ATOM     83  C2  SGN B   5      19.736  25.287  18.4950  0.00  0.00     0.000 C
ATOM     84  C3  SGN B   5      21.211  24.878  18.3830  0.00  0.00     0.000 C
ATOM     85  C4  SGN B   5      21.699  25.143  16.9700  0.00  0.00     0.000 C
ATOM     86  C5  SGN B   5      21.512  26.628  16.6690  0.00  0.00     0.000 C
ATOM     87  O5  SGN B   5      20.111  26.947  16.7700  0.00  0.00     0.000 O
ATOM     88   O  SGN B   5      21.357  23.516  18.7210  0.00  0.00     0.000 O
ATOM     90  HD  SGN B   5      21.546  24.185  19.2380  0.00  0.00     0.000 HD
BRANCH 83 92
ATOM     90   N  SGN B   5      19.008  25.408  19.7730  0.00  0.00     0.000 N
ATOM     92  HD  SGN B   5      18.944  26.236  20.0180  0.00  0.00     0.000 HD
ATOM     92   S  SGN B   5      17.678  24.542  19.9640  0.00  0.00     0.000 S
ATOM     93   O  SGN B   5      17.219  24.884  21.2770  0.00  0.00     0.000 OA
ATOM     94   O  SGN B   5      16.867  24.824  18.8300  0.00  0.00     0.000 OA
ATOM     95   O  SGN B   5      18.135  23.105  19.8470  0.00  0.00     0.000 OA
ENDBRANCH 83 92
BRANCH 86 96
ATOM     96   C  SGN B   5      21.970  27.044  15.2860  0.00  0.00     0.000 C
ATOM     97   O  SGN B   5      21.057  26.573  14.2920  0.00  0.00     0.000 O
ATOM     98   S  SGN B   5      20.533  27.666  13.2410  0.00  0.00     0.000 S
ATOM     99   O  SGN B   5      19.819  26.863  12.2780  0.00  0.00     0.000 OA
ATOM    100   O  SGN B   5      19.727  28.591  13.9550  0.00  0.00     0.000 OA
ATOM    101   O  SGN B   5      21.722  28.254  12.7170  0.00  0.00     0.000 OA
ENDBRANCH 86 96
BRANCH 82 102
ATOM    102  O4  IDS B   6      20.144  27.623  18.9480  0.00  0.00     0.000 O
BRANCH 102 106
ATOM    103  C1  IDS B   6      20.123  30.380  21.3270  0.00  0.00     0.000 C
ATOM    104  C2  IDS B   6      19.029  29.301  21.3640  0.00  0.00     0.000 C
ATOM    105  C3  IDS B   6      18.415  28.962  20.0200  0.00  0.00     0.000 C
ATOM    106  C4  IDS B   6      19.444  28.893  18.9060  0.00  0.00     0.000 C
ATOM    107  C5  IDS B   6      20.426  30.061  19.0350  0.00  0.00     0.000 C
ATOM    108  O5  IDS B   6      21.064  30.081  20.3130  0.00  0.00     0.000 O
ATOM    109   O  IDS B   6      17.423  29.933  19.7300  0.00  0.00     0.000 O
ATOM    111  HD  IDS B   6      17.655  30.617  20.2080  0.00  0.00     0.000 HD
BRANCH 104 111
ATOM    111   O  IDS B   6      19.613  28.043  21.8530  0.00  0.00     0.000 O
ATOM    112   S  IDS B   6      19.216  27.550  23.3240  0.00  0.00     0.000 S
ATOM    113   O  IDS B   6      19.626  28.638  24.1980  0.00  0.00     0.000 OA
ATOM    114   O  IDS B   6      17.778  27.257  23.3420  0.00  0.00     0.000 OA
ATOM    115   O  IDS B   6      20.058  26.376  23.4120  0.00  0.00     0.000 OA
ENDBRANCH 104 111
BRANCH 107 116
ATOM    116   C  IDS B   6      21.475  29.962  17.9350  0.00  0.00     0.000 C
ATOM    117   O  IDS B   6      21.100  30.166  16.8080  0.00  0.00     0.000 OA
ATOM    118   O  IDS B   6      22.636  29.681  18.1880  0.00  0.00     0.000 OA
ENDBRANCH 107 116
BRANCH 103 119
ATOM    119  O4  SGN B   7      19.425  31.545  21.3220  0.00  0.00     0.000 O
BRANCH 119 123
ATOM    120  C1  SGN B   7      19.886  35.365  22.9600  0.00  0.00     0.000 C
ATOM    121  C2  SGN B   7      20.718  35.020  21.7100  0.00  0.00     0.000 C
ATOM    122  C3  SGN B   7      20.151  33.776  21.0130  0.00  0.00     0.000 C
ATOM    123  C4  SGN B   7      20.037  32.636  22.0120  0.00  0.00     0.000 C
ATOM    124  C5  SGN B   7      19.197  33.081  23.2200  0.00  0.00     0.000 C
ATOM    125  O5  SGN B   7      19.768  34.253  23.8450  0.00  0.00     0.000 O
ATOM    126   O  SGN B   7      21.004  33.427  19.9170  0.00  0.00     0.000 O
ATOM    128  HD  SGN B   7      20.790  34.002  20.5290  0.00  0.00     0.000 HD
BRANCH 121 130
ATOM    128   N  SGN B   7      21.048  36.444  21.7990  0.00  0.00     0.000 N
ATOM    130  HD  SGN B   7      21.852  36.250  22.0560  0.00  0.00     0.000 HD
ATOM    130   S  SGN B   7      22.005  37.173  20.7280  0.00  0.00     0.000 S
ATOM    131   O  SGN B   7      21.478  36.817  19.4550  0.00  0.00     0.000 OA
ATOM    132   O  SGN B   7      22.130  38.537  21.0970  0.00  0.00     0.000 OA
ATOM    133   O  SGN B   7      23.385  36.534  21.1040  0.00  0.00     0.000 OA
ENDBRANCH 121 130
BRANCH 124 134
ATOM    134   C  SGN B   7      19.122  32.060  24.3170  0.00  0.00     0.000 C
ATOM    135   O  SGN B   7      18.229  32.545  25.3330  0.00  0.00     0.000 O
ATOM    136   S  SGN B   7      17.893  31.551  26.5020  0.00  0.00     0.000 S
ATOM    137   O  SGN B   7      17.076  32.286  27.4390  0.00  0.00     0.000 OA
ATOM    138   O  SGN B   7      19.174  31.167  27.0510  0.00  0.00     0.000 OA
ATOM    139   O  SGN B   7      17.188  30.483  25.8120  0.00  0.00     0.000 OA
ENDBRANCH 124 134
BRANCH 120 140
ATOM    140  O4  IDS B   8      18.626  35.809  23.0120  0.00  0.00     0.000 O
BRANCH 140 144
ATOM    141  C1  IDS B   8      15.540  37.654  23.2060  0.00  0.00     0.000 C
ATOM    142  C2  IDS B   8      15.826  36.471  24.1740  0.00  0.00     0.000 C
ATOM    143  C3  IDS B   8      16.325  35.206  23.4500  0.00  0.00     0.000 C
ATOM    144  C4  IDS B   8      17.369  35.530  22.3830  0.00  0.00     0.000 C
ATOM    145  C5  IDS B   8      16.916  36.739  21.5490  0.00  0.00     0.000 C
ATOM    146  O5  IDS B   8      16.666  37.879  22.3670  0.00  0.00     0.000 O
BRANCH 142 147
ATOM    147   O  IDS B   8      16.882  36.868  25.1430  0.00  0.00     0.000 O
ATOM    148   S  IDS B   8      16.624  36.778  26.7420  0.00  0.00     0.000 S
ATOM    149   O  IDS B   8      15.199  36.661  26.9510  0.00  0.00     0.000 OA
ATOM    150   O  IDS B   8      17.355  35.606  27.1870  0.00  0.00     0.000 OA
ATOM    151   O  IDS B   8      17.151  38.017  27.2830  0.00  0.00     0.000 OA
ENDBRANCH 142 147
BRANCH 145 152
ATOM    152   C  IDS B   8      17.957  37.172  20.5360  0.00  0.00     0.000 C
ATOM    153   O  IDS B   8      18.152  36.485  19.5390  0.00  0.00     0.000 OA
ATOM    154   O  IDS B   8      18.574  38.207  20.7130  0.00  0.00     0.000 OA
ENDBRANCH 145 152
ENDBRANCH 140 144
ENDBRANCH 120 140
ENDBRANCH 119 123
ENDBRANCH 103 119
ENDBRANCH 102 106
ENDBRANCH 82 102
ENDBRANCH 81 85
ENDBRANCH 65 81
ENDBRANCH 64 68
ENDBRANCH 41 64
ENDBRANCH 40 44
ENDBRANCH 24 40
ENDBRANCH 23 27
ENDBRANCH 1 23
TORSDOF 31
ENDMDL
MODEL 94
REMARK VINA RESULT:      -6.5     12.501     17.055
ROOT
ATOM      1  C1  SGN B   1      48.908  10.361  21.0240  0.00  0.00     0.000 C
ATOM      2  C2  SGN B   1      50.427  10.586  20.9510  0.00  0.00     0.000 C
ATOM      3  C3  SGN B   1      50.761  11.731  19.9880  0.00  0.00     0.000 C
ATOM      4  C4  SGN B   1      50.158  11.455  18.6140  0.00  0.00     0.000 C
ATOM      5  C5  SGN B   1      48.682  11.101  18.7790  0.00  0.00     0.000 C
ATOM      6  O5  SGN B   1      48.550   9.999  19.6980  0.00  0.00     0.000 O
ATOM      7   O  SGN B   1      52.169  11.907  19.8890  0.00  0.00     0.000 O
ATOM      9  HD  SGN B   1      52.072  11.096  19.6010  0.00  0.00     0.000 HD
ATOM      9   O  SGN B   1      50.297  12.605  17.8000  0.00  0.00     0.000 O
ATOM     11  HD  SGN B   1      50.200  11.794  17.5120  0.00  0.00     0.000 HD
ENDROOT
BRANCH 2 13
ATOM     11   N  SGN B   1      50.887   9.544  21.8890  0.00  0.00     0.000 N
ATOM     13  HD  SGN B   1      50.325  10.151  22.1460  0.00  0.00     0.000 HD
ATOM     13   S  SGN B   1      50.965   9.791  23.4770  0.00  0.00     0.000 S
ATOM     14   O  SGN B   1      50.492  11.082  23.7910  0.00  0.00     0.000 OA
ATOM     15   O  SGN B   1      50.403   8.660  24.1360  0.00  0.00     0.000 OA
ATOM     16   O  SGN B   1      52.513   9.698  23.6420  0.00  0.00     0.000 OA
ENDBRANCH 2 13
BRANCH 5 17
ATOM     17   C  SGN B   1      48.000  10.699  17.4950  0.00  0.00     0.000 C
ATOM     18   O  SGN B   1      48.830   9.804  16.7290  0.00  0.00     0.000 O
ATOM     19   S  SGN B   1      48.944  10.117  15.1650  0.00  0.00     0.000 S
ATOM     20   O  SGN B   1      49.619   8.968  14.6000  0.00  0.00     0.000 OA
ATOM     21   O  SGN B   1      47.573  10.253  14.7320  0.00  0.00     0.000 OA
ATOM     22   O  SGN B   1      49.712  11.340  15.0800  0.00  0.00     0.000 OA
ENDBRANCH 5 17
BRANCH 1 23
ATOM     23  O4  IDS B   2      47.814  10.775  21.7250  0.00  0.00     0.000 O
BRANCH 23 27
ATOM     24  C1  IDS B   2      44.825  12.943  23.6220  0.00  0.00     0.000 C
ATOM     25  C2  IDS B   2      45.581  13.689  22.5000  0.00  0.00     0.000 C
ATOM     26  C3  IDS B   2      46.435  12.724  21.6820  0.00  0.00     0.000 C
ATOM     27  C4  IDS B   2      47.399  11.901  22.5260  0.00  0.00     0.000 C
ATOM     28  C5  IDS B   2      46.736  11.522  23.8650  0.00  0.00     0.000 C
ATOM     29  O5  IDS B   2      45.321  11.606  23.7720  0.00  0.00     0.000 O
ATOM     30   O  IDS B   2      47.208  13.463  20.7440  0.00  0.00     0.000 O
ATOM     32  HD  IDS B   2      47.909  13.833  21.0950  0.00  0.00     0.000 HD
BRANCH 25 32
ATOM     32   O  IDS B   2      44.659  14.376  21.5630  0.00  0.00     0.000 O
ATOM     33   S  IDS B   2      44.714  16.008  21.3260  0.00  0.00     0.000 S
ATOM     34   O  IDS B   2      43.540  16.342  20.5340  0.00  0.00     0.000 OA
ATOM     35   O  IDS B   2      44.697  16.686  22.6140  0.00  0.00     0.000 OA
ATOM     36   O  IDS B   2      45.932  16.254  20.5900  0.00  0.00     0.000 OA
ENDBRANCH 25 32
BRANCH 28 37
ATOM     37   C  IDS B   2      47.100  10.159  24.4890  0.00  0.00     0.000 C
ATOM     38   O  IDS B   2      47.783  10.266  25.4810  0.00  0.00     0.000 OA
ATOM     39   O  IDS B   2      46.714   9.026  24.1100  0.00  0.00     0.000 OA
ENDBRANCH 28 37
BRANCH 24 40
ATOM     40  O4  SUS B   3      44.067  13.634  24.4980  0.00  0.00     0.000 O
BRANCH 40 44
ATOM     41  C1  SUS B   3      40.506  12.494  26.3850  0.00  0.00     0.000 C
ATOM     42  C2  SUS B   3      41.821  12.237  27.1470  0.00  0.00     0.000 C
ATOM     43  C3  SUS B   3      42.922  13.119  26.5630  0.00  0.00     0.000 C
ATOM     44  C4  SUS B   3      43.015  12.863  25.0670  0.00  0.00     0.000 C
ATOM     45  C5  SUS B   3      41.696  13.239  24.4220  0.00  0.00     0.000 C
ATOM     46  O5  SUS B   3      40.670  12.384  24.9660  0.00  0.00     0.000 O
BRANCH 42 49
ATOM     47   N  SUS B   3      41.435  12.384  28.5610  0.00  0.00     0.000 N
ATOM     49  HD  SUS B   3      41.822  13.019  29.0040  0.00  0.00     0.000 HD
ATOM     49   S  SUS B   3      41.604  11.024  29.3920  0.00  0.00     0.000 S
ATOM     50   O  SUS B   3      42.937  10.574  29.3090  0.00  0.00     0.000 OA
ATOM     51   O  SUS B   3      41.318  11.631  30.7890  0.00  0.00     0.000 OA
ATOM     52   O  SUS B   3      40.586  10.122  29.0230  0.00  0.00     0.000 OA
ENDBRANCH 42 49
BRANCH 43 53
ATOM     53   O  SUS B   3      44.193  12.752  27.2150  0.00  0.00     0.000 O
ATOM     54   S  SUS B   3      44.837  13.837  28.2680  0.00  0.00     0.000 S
ATOM     55   O  SUS B   3      43.995  13.843  29.4570  0.00  0.00     0.000 OA
ATOM     56   O  SUS B   3      46.182  13.343  28.5050  0.00  0.00     0.000 OA
ATOM     57   O  SUS B   3      44.810  15.137  27.5920  0.00  0.00     0.000 OA
ENDBRANCH 43 53
BRANCH 45 58
ATOM     58   C  SUS B   3      41.743  13.106  22.9160  0.00  0.00     0.000 C
ATOM     59   S  SUS B   3      41.803  11.367  21.0300  0.00  0.00     0.000 S
ATOM     60   O  SUS B   3      41.566  11.726  22.5540  0.00  0.00     0.000 O
ATOM     61   O  SUS B   3      43.244  11.327  20.8690  0.00  0.00     0.000 OA
ATOM     62   O  SUS B   3      41.200  10.062  20.9650  0.00  0.00     0.000 OA
ATOM     63   O  SUS B   3      41.137  12.381  20.2920  0.00  0.00     0.000 OA
ENDBRANCH 45 58
BRANCH 41 64
ATOM     64  O4  IDS B   4      39.845  13.628  26.7880  0.00  0.00     0.000 O
BRANCH 64 68
ATOM     65  C1  IDS B   4      36.968  15.756  27.4750  0.00  0.00     0.000 C
ATOM     66  C2  IDS B   4      36.935  14.268  27.8490  0.00  0.00     0.000 C
ATOM     67  C3  IDS B   4      37.428  13.335  26.7550  0.00  0.00     0.000 C
ATOM     68  C4  IDS B   4      38.643  13.874  26.0240  0.00  0.00     0.000 C
ATOM     69  C5  IDS B   4      38.401  15.359  25.7260  0.00  0.00     0.000 C
ATOM     70  O5  IDS B   4      38.248  16.068  26.9580  0.00  0.00     0.000 O
ATOM     71   O  IDS B   4      36.362  13.158  25.8450  0.00  0.00     0.000 O
ATOM     73  HD  IDS B   4      36.724  13.378  26.6000  0.00  0.00     0.000 HD
BRANCH 66 73
ATOM     73   O  IDS B   4      37.837  14.047  28.9880  0.00  0.00     0.000 O
ATOM     74   S  IDS B   4      37.202  14.077  30.4750  0.00  0.00     0.000 S
ATOM     75   O  IDS B   4      36.549  15.361  30.6150  0.00  0.00     0.000 OA
ATOM     76   O  IDS B   4      38.374  13.922  31.3000  0.00  0.00     0.000 OA
ATOM     77   O  IDS B   4      36.287  12.962  30.5270  0.00  0.00     0.000 OA
ENDBRANCH 66 73
BRANCH 69 78
ATOM     78   C  IDS B   4      39.434  15.992  24.8030  0.00  0.00     0.000 C
ATOM     79   O  IDS B   4      39.362  15.770  23.5950  0.00  0.00     0.000 OA
ATOM     80   O  IDS B   4      40.251  16.797  25.2860  0.00  0.00     0.000 OA
ENDBRANCH 69 78
BRANCH 65 81
ATOM     81  O4  SGN B   5      35.898  16.047  26.6840  0.00  0.00     0.000 O
BRANCH 81 85
ATOM     82  C1  SGN B   5      33.217  19.165  25.8290  0.00  0.00     0.000 C
ATOM     83  C2  SGN B   5      34.346  18.918  24.8170  0.00  0.00     0.000 C
ATOM     84  C3  SGN B   5      34.920  17.509  25.0220  0.00  0.00     0.000 C
ATOM     85  C4  SGN B   5      35.368  17.356  26.4650  0.00  0.00     0.000 C
ATOM     86  C5  SGN B   5      34.163  17.600  27.3700  0.00  0.00     0.000 C
ATOM     87  O5  SGN B   5      33.682  18.940  27.1470  0.00  0.00     0.000 O
ATOM     88   O  SGN B   5      35.995  17.296  24.1340  0.00  0.00     0.000 O
ATOM     90  HD  SGN B   5      35.191  16.990  24.0310  0.00  0.00     0.000 HD
BRANCH 83 92
ATOM     90   N  SGN B   5      33.498  19.470  23.7420  0.00  0.00     0.000 N
ATOM     92  HD  SGN B   5      32.701  19.641  24.0320  0.00  0.00     0.000 HD
ATOM     92   S  SGN B   5      34.127  20.588  22.7890  0.00  0.00     0.000 S
ATOM     93   O  SGN B   5      33.072  20.912  21.8770  0.00  0.00     0.000 OA
ATOM     94   O  SGN B   5      34.650  21.586  23.6580  0.00  0.00     0.000 OA
ATOM     95   O  SGN B   5      35.304  19.909  22.1230  0.00  0.00     0.000 OA
ENDBRANCH 83 92
BRANCH 86 96
ATOM     96   C  SGN B   5      34.461  17.468  28.8490  0.00  0.00     0.000 C
ATOM     97   O  SGN B   5      35.424  18.443  29.2560  0.00  0.00     0.000 O
ATOM     98   S  SGN B   5      35.038  19.325  30.5390  0.00  0.00     0.000 S
ATOM     99   O  SGN B   5      36.260  20.043  30.8110  0.00  0.00     0.000 OA
ATOM    100   O  SGN B   5      33.938  20.144  30.1770  0.00  0.00     0.000 OA
ATOM    101   O  SGN B   5      34.710  18.366  31.5430  0.00  0.00     0.000 OA
ENDBRANCH 86 96
BRANCH 82 102
ATOM    102  O4  IDS B   6      32.113  18.406  25.5790  0.00  0.00     0.000 O
BRANCH 102 106
ATOM    103  C1  IDS B   6      28.538  18.100  24.9590  0.00  0.00     0.000 C
ATOM    104  C2  IDS B   6      29.317  19.335  24.4780  0.00  0.00     0.000 C
ATOM    105  C3  IDS B   6      30.237  19.957  25.5100  0.00  0.00     0.000 C
ATOM    106  C4  IDS B   6      30.984  18.920  26.3300  0.00  0.00     0.000 C
ATOM    107  C5  IDS B   6      30.031  17.788  26.7250  0.00  0.00     0.000 C
ATOM    108  O5  IDS B   6      29.418  17.186  25.5840  0.00  0.00     0.000 O
ATOM    109   O  IDS B   6      29.458  20.796  26.3470  0.00  0.00     0.000 O
ATOM    111  HD  IDS B   6      28.655  20.483  26.2670  0.00  0.00     0.000 HD
BRANCH 104 111
ATOM    111   O  IDS B   6      30.192  18.944  23.3620  0.00  0.00     0.000 O
ATOM    112   S  IDS B   6      29.755  19.364  21.8800  0.00  0.00     0.000 S
ATOM    113   O  IDS B   6      28.448  18.753  21.6970  0.00  0.00     0.000 OA
ATOM    114   O  IDS B   6      29.766  20.829  21.7900  0.00  0.00     0.000 OA
ATOM    115   O  IDS B   6      30.814  18.720  21.1330  0.00  0.00     0.000 OA
ENDBRANCH 104 111
BRANCH 107 116
ATOM    116   C  IDS B   6      30.798  16.737  27.5160  0.00  0.00     0.000 C
ATOM    117   O  IDS B   6      30.979  16.963  28.6860  0.00  0.00     0.000 OA
ATOM    118   O  IDS B   6      31.214  15.720  26.9840  0.00  0.00     0.000 OA
ENDBRANCH 107 116
BRANCH 103 119
ATOM    119  O4  SGN B   7      27.478  18.628  25.6240  0.00  0.00     0.000 O
BRANCH 119 123
ATOM    120  C1  SGN B   7      24.004  17.127  27.4030  0.00  0.00     0.000 C
ATOM    121  C2  SGN B   7      25.267  17.230  28.2790  0.00  0.00     0.000 C
ATOM    122  C3  SGN B   7      26.304  18.149  27.6220  0.00  0.00     0.000 C
ATOM    123  C4  SGN B   7      26.577  17.683  26.2010  0.00  0.00     0.000 C
ATOM    124  C5  SGN B   7      25.258  17.608  25.4140  0.00  0.00     0.000 C
ATOM    125  O5  SGN B   7      24.313  16.731  26.0680  0.00  0.00     0.000 O
ATOM    126   O  SGN B   7      27.499  18.143  28.4110  0.00  0.00     0.000 O
ATOM    128  HD  SGN B   7      26.664  17.923  28.3380  0.00  0.00     0.000 HD
BRANCH 121 130
ATOM    128   N  SGN B   7      24.856  16.286  29.3220  0.00  0.00     0.000 N
ATOM    130  HD  SGN B   7      25.669  16.250  29.6190  0.00  0.00     0.000 HD
ATOM    130   S  SGN B   7      24.742  16.712  30.8700  0.00  0.00     0.000 S
ATOM    131   O  SGN B   7      23.955  17.898  30.8730  0.00  0.00     0.000 OA
ATOM    132   O  SGN B   7      24.331  15.578  31.6160  0.00  0.00     0.000 OA
ATOM    133   O  SGN B   7      26.257  16.892  31.2250  0.00  0.00     0.000 OA
ENDBRANCH 121 130
BRANCH 124 134
ATOM    134   C  SGN B   7      25.408  17.046  24.0310  0.00  0.00     0.000 C
ATOM    135   O  SGN B   7      24.365  16.081  23.8130  0.00  0.00     0.000 O
ATOM    136   S  SGN B   7      24.254  15.486  22.3640  0.00  0.00     0.000 S
ATOM    137   O  SGN B   7      23.220  14.479  22.4160  0.00  0.00     0.000 OA
ATOM    138   O  SGN B   7      25.560  14.938  22.0780  0.00  0.00     0.000 OA
ATOM    139   O  SGN B   7      23.903  16.654  21.5720  0.00  0.00     0.000 OA
ENDBRANCH 124 134
BRANCH 120 140
ATOM    140  O4  IDS B   8      23.108  18.083  27.1360  0.00  0.00     0.000 O
BRANCH 140 144
ATOM    141  C1  IDS B   8      21.130  20.920  26.1360  0.00  0.00     0.000 C
ATOM    142  C2  IDS B   8      21.840  20.888  27.5190  0.00  0.00     0.000 C
ATOM    143  C3  IDS B   8      21.598  19.578  28.2910  0.00  0.00     0.000 C
ATOM    144  C4  IDS B   8      21.723  18.350  27.3900  0.00  0.00     0.000 C
ATOM    145  C5  IDS B   8      20.979  18.586  26.0670  0.00  0.00     0.000 C
ATOM    146  O5  IDS B   8      21.455  19.750  25.3950  0.00  0.00     0.000 O
BRANCH 142 147
ATOM    147   O  IDS B   8      23.308  21.020  27.3260  0.00  0.00     0.000 O
ATOM    148   S  IDS B   8      24.213  21.878  28.3630  0.00  0.00     0.000 S
ATOM    149   O  IDS B   8      23.322  22.710  29.1390  0.00  0.00     0.000 OA
ATOM    150   O  IDS B   8      24.910  20.896  29.1720  0.00  0.00     0.000 OA
ATOM    151   O  IDS B   8      25.103  22.666  27.5320  0.00  0.00     0.000 OA
ENDBRANCH 142 147
BRANCH 145 152
ATOM    152   C  IDS B   8      21.150  17.441  25.0900  0.00  0.00     0.000 C
ATOM    153   O  IDS B   8      21.473  17.679  23.9310  0.00  0.00     0.000 OA
ATOM    154   O  IDS B   8      20.986  16.296  25.4700  0.00  0.00     0.000 OA
ENDBRANCH 145 152
ENDBRANCH 140 144
ENDBRANCH 120 140
ENDBRANCH 119 123
ENDBRANCH 103 119
ENDBRANCH 102 106
ENDBRANCH 82 102
ENDBRANCH 81 85
ENDBRANCH 65 81
ENDBRANCH 64 68
ENDBRANCH 41 64
ENDBRANCH 40 44
ENDBRANCH 24 40
ENDBRANCH 23 27
ENDBRANCH 1 23
TORSDOF 31
ENDMDL
MODEL 95
REMARK VINA RESULT:      -6.5      7.991     11.279
ROOT
ATOM      1  C1  SGN B   1      37.518  16.636  26.1730  0.00  0.00     0.000 C
ATOM      2  C2  SGN B   1      38.771  16.758  25.2900  0.00  0.00     0.000 C
ATOM      3  C3  SGN B   1      39.083  15.425  24.6020  0.00  0.00     0.000 C
ATOM      4  C4  SGN B   1      39.222  14.317  25.6400  0.00  0.00     0.000 C
ATOM      5  C5  SGN B   1      38.010  14.346  26.5680  0.00  0.00     0.000 C
ATOM      6  O5  SGN B   1      37.875  15.660  27.1430  0.00  0.00     0.000 O
ATOM      7   O  SGN B   1      40.268  15.530  23.8220  0.00  0.00     0.000 O
ATOM      9  HD  SGN B   1      40.565  15.701  24.6170  0.00  0.00     0.000 HD
ATOM      9   O  SGN B   1      39.305  13.065  24.9840  0.00  0.00     0.000 O
ATOM     11  HD  SGN B   1      39.602  13.236  25.7790  0.00  0.00     0.000 HD
ENDROOT
BRANCH 2 13
ATOM     11   N  SGN B   1      39.125  18.173  25.5140  0.00  0.00     0.000 N
ATOM     13  HD  SGN B   1      38.337  17.957  25.2260  0.00  0.00     0.000 HD
ATOM     13   S  SGN B   1      38.447  19.371  24.6810  0.00  0.00     0.000 S
ATOM     14   O  SGN B   1      37.477  18.857  23.7940  0.00  0.00     0.000 OA
ATOM     15   O  SGN B   1      38.086  20.405  25.5910  0.00  0.00     0.000 OA
ATOM     16   O  SGN B   1      39.716  19.855  23.9140  0.00  0.00     0.000 OA
ENDBRANCH 2 13
BRANCH 5 17
ATOM     17   C  SGN B   1      38.086  13.362  27.7090  0.00  0.00     0.000 C
ATOM     18   O  SGN B   1      36.977  13.537  28.6140  0.00  0.00     0.000 O
ATOM     19   S  SGN B   1      37.337  13.537  30.1720  0.00  0.00     0.000 S
ATOM     20   O  SGN B   1      36.060  13.488  30.8520  0.00  0.00     0.000 OA
ATOM     21   O  SGN B   1      38.133  12.345  30.3500  0.00  0.00     0.000 OA
ATOM     22   O  SGN B   1      38.064  14.768  30.3920  0.00  0.00     0.000 OA
ENDBRANCH 5 17
BRANCH 1 23
ATOM     23  O4  IDS B   2      36.164  16.779  26.1050  0.00  0.00     0.000 O
BRANCH 23 27
ATOM     24  C1  IDS B   2      32.202  17.811  26.7880  0.00  0.00     0.000 C
ATOM     25  C2  IDS B   2      32.854  18.455  25.5440  0.00  0.00     0.000 C
ATOM     26  C3  IDS B   2      34.188  17.788  25.2210  0.00  0.00     0.000 C
ATOM     27  C4  IDS B   2      35.160  17.775  26.3930  0.00  0.00     0.000 C
ATOM     28  C5  IDS B   2      34.394  17.545  27.7110  0.00  0.00     0.000 C
ATOM     29  O5  IDS B   2      33.128  16.951  27.4650  0.00  0.00     0.000 O
ATOM     30   O  IDS B   2      34.814  18.487  24.1520  0.00  0.00     0.000 O
ATOM     32  HD  IDS B   2      35.206  19.217  24.4040  0.00  0.00     0.000 HD
BRANCH 25 32
ATOM     32   O  IDS B   2      31.995  18.345  24.3400  0.00  0.00     0.000 O
ATOM     33   S  IDS B   2      31.466  19.677  23.5220  0.00  0.00     0.000 S
ATOM     34   O  IDS B   2      30.486  19.199  22.5600  0.00  0.00     0.000 OA
ATOM     35   O  IDS B   2      30.873  20.618  24.4620  0.00  0.00     0.000 OA
ATOM     36   O  IDS B   2      32.631  20.218  22.8620  0.00  0.00     0.000 OA
ENDBRANCH 25 32
BRANCH 28 37
ATOM     37   C  IDS B   2      35.098  16.742  28.8240  0.00  0.00     0.000 C
ATOM     38   O  IDS B   2      34.523  15.714  29.0940  0.00  0.00     0.000 OA
ATOM     39   O  IDS B   2      36.184  17.024  29.3870  0.00  0.00     0.000 OA
ENDBRANCH 28 37
BRANCH 24 40
ATOM     40  O4  SUS B   3      31.045  18.308  27.2740  0.00  0.00     0.000 O
BRANCH 40 44
ATOM     41  C1  SUS B   3      28.045  16.458  29.5380  0.00  0.00     0.000 C
ATOM     42  C2  SUS B   3      29.461  16.504  30.1470  0.00  0.00     0.000 C
ATOM     43  C3  SUS B   3      30.274  17.593  29.4500  0.00  0.00     0.000 C
ATOM     44  C4  SUS B   3      30.253  17.338  27.9510  0.00  0.00     0.000 C
ATOM     45  C5  SUS B   3      28.822  17.409  27.4610  0.00  0.00     0.000 C
ATOM     46  O5  SUS B   3      28.071  16.363  28.1090  0.00  0.00     0.000 O
BRANCH 42 49
ATOM     47   N  SUS B   3      30.331  15.605  30.9240  0.00  0.00     0.000 N
ATOM     49  HD  SUS B   3      30.531  14.846  30.5570  0.00  0.00     0.000 HD
ATOM     49   S  SUS B   3      29.761  15.311  32.3930  0.00  0.00     0.000 S
ATOM     50   O  SUS B   3      28.467  14.759  32.3040  0.00  0.00     0.000 OA
ATOM     51   O  SUS B   3      30.796  14.221  32.7720  0.00  0.00     0.000 OA
ATOM     52   O  SUS B   3      29.928  16.457  33.1960  0.00  0.00     0.000 OA
ENDBRANCH 42 49
BRANCH 43 53
ATOM     53   O  SUS B   3      31.659  17.519  29.9530  0.00  0.00     0.000 O
ATOM     54   S  SUS B   3      32.228  18.823  30.7750  0.00  0.00     0.000 S
ATOM     55   O  SUS B   3      31.548  18.858  32.0620  0.00  0.00     0.000 OA
ATOM     56   O  SUS B   3      33.657  18.581  30.8740  0.00  0.00     0.000 OA
ATOM     57   O  SUS B   3      31.897  20.001  29.9670  0.00  0.00     0.000 OA
ENDBRANCH 43 53
BRANCH 45 58
ATOM     58   C  SUS B   3      28.730  17.264  25.9570  0.00  0.00     0.000 C
ATOM     59   S  SUS B   3      27.052  16.902  24.0490  0.00  0.00     0.000 S
ATOM     60   O  SUS B   3      27.347  17.262  25.5630  0.00  0.00     0.000 O
ATOM     61   O  SUS B   3      27.179  15.459  23.9710  0.00  0.00     0.000 OA
ATOM     62   O  SUS B   3      25.690  17.348  23.9290  0.00  0.00     0.000 OA
ATOM     63   O  SUS B   3      28.002  17.638  23.2920  0.00  0.00     0.000 OA
ENDBRANCH 45 58
BRANCH 41 64
ATOM     64  O4  IDS B   4      27.204  17.430  30.0210  0.00  0.00     0.000 O
BRANCH 64 68
ATOM     65  C1  IDS B   4      24.224  18.910  31.5060  0.00  0.00     0.000 C
ATOM     66  C2  IDS B   4      24.925  17.731  32.1930  0.00  0.00     0.000 C
ATOM     67  C3  IDS B   4      25.286  16.586  31.2610  0.00  0.00     0.000 C
ATOM     68  C4  IDS B   4      25.810  17.061  29.9190  0.00  0.00     0.000 C
ATOM     69  C5  IDS B   4      24.910  18.204  29.4320  0.00  0.00     0.000 C
ATOM     70  O5  IDS B   4      24.974  19.285  30.3650  0.00  0.00     0.000 O
ATOM     71   O  IDS B   4      24.117  15.816  31.0710  0.00  0.00     0.000 O
ATOM     73  HD  IDS B   4      24.621  16.396  31.4700  0.00  0.00     0.000 HD
BRANCH 66 73
ATOM     73   O  IDS B   4      26.202  18.199  32.7500  0.00  0.00     0.000 O
ATOM     74   S  IDS B   4      26.485  17.936  34.3210  0.00  0.00     0.000 S
ATOM     75   O  IDS B   4      25.388  18.544  35.0430  0.00  0.00     0.000 OA
ATOM     76   O  IDS B   4      27.751  18.600  34.5090  0.00  0.00     0.000 OA
ATOM     77   O  IDS B   4      26.540  16.501  34.4670  0.00  0.00     0.000 OA
ENDBRANCH 66 73
BRANCH 69 78
ATOM     78   C  IDS B   4      25.171  18.643  27.9970  0.00  0.00     0.000 C
ATOM     79   O  IDS B   4      24.399  18.271  27.1150  0.00  0.00     0.000 OA
ATOM     80   O  IDS B   4      26.094  19.450  27.7800  0.00  0.00     0.000 OA
ENDBRANCH 69 78
BRANCH 65 81
ATOM     81  O4  SGN B   5      22.913  18.602  31.3050  0.00  0.00     0.000 O
BRANCH 81 85
ATOM     82  C1  SGN B   5      19.064  20.245  30.9520  0.00  0.00     0.000 C
ATOM     83  C2  SGN B   5      20.094  20.646  29.8860  0.00  0.00     0.000 C
ATOM     84  C3  SGN B   5      21.250  19.636  29.8830  0.00  0.00     0.000 C
ATOM     85  C4  SGN B   5      21.839  19.546  31.2790  0.00  0.00     0.000 C
ATOM     86  C5  SGN B   5      20.733  19.119  32.2410  0.00  0.00     0.000 C
ATOM     87  O5  SGN B   5      19.690  20.112  32.2140  0.00  0.00     0.000 O
ATOM     88   O  SGN B   5      22.228  20.029  28.9450  0.00  0.00     0.000 O
ATOM     90  HD  SGN B   5      21.638  19.407  28.8240  0.00  0.00     0.000 HD
BRANCH 83 92
ATOM     90   N  SGN B   5      19.170  20.792  28.7440  0.00  0.00     0.000 N
ATOM     92  HD  SGN B   5      18.435  20.356  28.8810  0.00  0.00     0.000 HD
ATOM     92   S  SGN B   5      18.985  22.248  28.1100  0.00  0.00     0.000 S
ATOM     93   O  SGN B   5      18.041  22.055  27.0500  0.00  0.00     0.000 OA
ATOM     94   O  SGN B   5      18.668  23.106  29.1990  0.00  0.00     0.000 OA
ATOM     95   O  SGN B   5      20.363  22.631  27.6180  0.00  0.00     0.000 OA
ENDBRANCH 83 92
BRANCH 86 96
ATOM     96   C  SGN B   5      21.183  18.976  33.6800  0.00  0.00     0.000 C
ATOM     97   O  SGN B   5      20.696  17.753  34.2390  0.00  0.00     0.000 O
ATOM     98   S  SGN B   5      21.784  16.825  34.9640  0.00  0.00     0.000 S
ATOM     99   O  SGN B   5      20.971  15.806  35.5820  0.00  0.00     0.000 OA
ATOM    100   O  SGN B   5      22.672  16.349  33.9640  0.00  0.00     0.000 OA
ATOM    101   O  SGN B   5      22.418  17.691  35.9040  0.00  0.00     0.000 OA
ENDBRANCH 86 96
BRANCH 82 102
ATOM    102  O4  IDS B   6      18.395  19.101  30.6310  0.00  0.00     0.000 O
BRANCH 102 106
ATOM    103  C1  IDS B   6      15.472  17.178  29.6220  0.00  0.00     0.000 C
ATOM    104  C2  IDS B   6      15.805  18.517  28.9440  0.00  0.00     0.000 C
ATOM    105  C3  IDS B   6      16.141  19.652  29.8920  0.00  0.00     0.000 C
ATOM    106  C4  IDS B   6      17.011  19.207  31.0540  0.00  0.00     0.000 C
ATOM    107  C5  IDS B   6      16.504  17.868  31.5980  0.00  0.00     0.000 C
ATOM    108  O5  IDS B   6      16.461  16.863  30.5840  0.00  0.00     0.000 O
ATOM    109   O  IDS B   6      14.924  20.211  30.3590  0.00  0.00     0.000 O
ATOM    111  HD  IDS B   6      14.348  19.573  30.2530  0.00  0.00     0.000 HD
BRANCH 104 111
ATOM    111   O  IDS B   6      17.002  18.344  28.1050  0.00  0.00     0.000 O
ATOM    112   S  IDS B   6      16.798  18.203  26.5230  0.00  0.00     0.000 S
ATOM    113   O  IDS B   6      15.935  17.042  26.3680  0.00  0.00     0.000 OA
ATOM    114   O  IDS B   6      16.235  19.458  26.0130  0.00  0.00     0.000 OA
ATOM    115   O  IDS B   6      18.172  17.971  26.1310  0.00  0.00     0.000 OA
ENDBRANCH 104 111
BRANCH 107 116
ATOM    116   C  IDS B   6      17.405  17.414  32.7390  0.00  0.00     0.000 C
ATOM    117   O  IDS B   6      17.971  16.360  32.5950  0.00  0.00     0.000 OA
ATOM    118   O  IDS B   6      17.536  18.084  33.7500  0.00  0.00     0.000 OA
ENDBRANCH 107 116
BRANCH 103 119
ATOM    119  O4  SGN B   7      14.166  17.310  29.9680  0.00  0.00     0.000 O
BRANCH 119 123
ATOM    120  C1  SGN B   7      10.969  14.745  30.7990  0.00  0.00     0.000 C
ATOM    121  C2  SGN B   7      12.088  14.856  31.8530  0.00  0.00     0.000 C
ATOM    122  C3  SGN B   7      12.947  16.100  31.5960  0.00  0.00     0.000 C
ATOM    123  C4  SGN B   7      13.451  16.089  30.1620  0.00  0.00     0.000 C
ATOM    124  C5  SGN B   7      12.264  15.970  29.1920  0.00  0.00     0.000 C
ATOM    125  O5  SGN B   7      11.484  14.785  29.4690  0.00  0.00     0.000 O
ATOM    126   O  SGN B   7      14.032  16.117  32.5300  0.00  0.00     0.000 O
ATOM    128  HD  SGN B   7      13.280  15.767  32.2830  0.00  0.00     0.000 HD
BRANCH 121 130
ATOM    128   N  SGN B   7      11.090  14.184  32.6900  0.00  0.00     0.000 N
ATOM    130  HD  SGN B   7      11.454  13.417  32.5210  0.00  0.00     0.000 HD
ATOM    130   S  SGN B   7      11.451  13.578  34.1370  0.00  0.00     0.000 S
ATOM    131   O  SGN B   7      12.116  14.631  34.8260  0.00  0.00     0.000 OA
ATOM    132   O  SGN B   7      10.278  12.994  34.6810  0.00  0.00     0.000 OA
ATOM    133   O  SGN B   7      12.342  12.360  33.7180  0.00  0.00     0.000 OA
ENDBRANCH 121 130
BRANCH 124 134
ATOM    134   C  SGN B   7      12.667  15.835  27.7530  0.00  0.00     0.000 C
ATOM    135   O  SGN B   7      11.546  16.193  26.9280  0.00  0.00     0.000 O
ATOM    136   S  SGN B   7      11.810  16.265  25.3810  0.00  0.00     0.000 S
ATOM    137   O  SGN B   7      10.533  16.535  24.7640  0.00  0.00     0.000 OA
ATOM    138   O  SGN B   7      12.345  14.970  25.0280  0.00  0.00     0.000 OA
ATOM    139   O  SGN B   7      12.762  17.360  25.2770  0.00  0.00     0.000 OA
ENDBRANCH 124 134
BRANCH 120 140
ATOM    140  O4  IDS B   8       9.909  15.545  30.6370  0.00  0.00     0.000 O
BRANCH 140 144
ATOM    141  C1  IDS B   8       8.027  18.611  30.5020  0.00  0.00     0.000 C
ATOM    142  C2  IDS B   8       9.149  18.407  31.5600  0.00  0.00     0.000 C
ATOM    143  C3  IDS B   8       9.038  17.064  32.3050  0.00  0.00     0.000 C
ATOM    144  C4  IDS B   8       8.725  15.908  31.3580  0.00  0.00     0.000 C
ATOM    145  C5  IDS B   8       7.614  16.312  30.3770  0.00  0.00     0.000 C
ATOM    146  O5  IDS B   8       7.961  17.482  29.6400  0.00  0.00     0.000 O
BRANCH 142 147
ATOM    147   O  IDS B   8      10.474  18.430  30.8880  0.00  0.00     0.000 O
ATOM    148   S  IDS B   8      11.408  19.756  30.9250  0.00  0.00     0.000 S
ATOM    149   O  IDS B   8      10.575  20.867  31.3250  0.00  0.00     0.000 OA
ATOM    150   O  IDS B   8      12.456  19.465  31.8860  0.00  0.00     0.000 OA
ATOM    151   O  IDS B   8      11.904  19.911  29.5710  0.00  0.00     0.000 OA
ENDBRANCH 142 147
BRANCH 145 152
ATOM    152   C  IDS B   8       7.327  15.239  29.3460  0.00  0.00     0.000 C
ATOM    153   O  IDS B   8       7.205  14.073  29.7050  0.00  0.00     0.000 OA
ATOM    154   O  IDS B   8       7.199  15.549  28.1750  0.00  0.00     0.000 OA
ENDBRANCH 145 152
ENDBRANCH 140 144
ENDBRANCH 120 140
ENDBRANCH 119 123
ENDBRANCH 103 119
ENDBRANCH 102 106
ENDBRANCH 82 102
ENDBRANCH 81 85
ENDBRANCH 65 81
ENDBRANCH 64 68
ENDBRANCH 41 64
ENDBRANCH 40 44
ENDBRANCH 24 40
ENDBRANCH 23 27
ENDBRANCH 1 23
TORSDOF 31
ENDMDL
MODEL 96
REMARK VINA RESULT:      -6.5      8.599     11.838
ROOT
ATOM      1  C1  SGN B   1      36.420  17.817  24.0960  0.00  0.00     0.000 C
ATOM      2  C2  SGN B   1      37.927  17.699  24.3770  0.00  0.00     0.000 C
ATOM      3  C3  SGN B   1      38.521  19.066  24.7330  0.00  0.00     0.000 C
ATOM      4  C4  SGN B   1      38.224  20.073  23.6270  0.00  0.00     0.000 C
ATOM      5  C5  SGN B   1      36.732  20.034  23.3040  0.00  0.00     0.000 C
ATOM      6  O5  SGN B   1      36.346  18.686  22.9740  0.00  0.00     0.000 O
ATOM      7   O  SGN B   1      39.924  18.960  24.9480  0.00  0.00     0.000 O
ATOM      9  HD  SGN B   1      39.853  18.706  24.1230  0.00  0.00     0.000 HD
ATOM      9   O  SGN B   1      38.597  21.369  24.0580  0.00  0.00     0.000 O
ATOM     11  HD  SGN B   1      38.526  21.115  23.2330  0.00  0.00     0.000 HD
ENDROOT
BRANCH 2 13
ATOM     11   N  SGN B   1      37.827  16.248  24.1300  0.00  0.00     0.000 N
ATOM     13  HD  SGN B   1      37.544  16.588  24.8750  0.00  0.00     0.000 HD
ATOM     13   S  SGN B   1      37.852  15.170  25.3240  0.00  0.00     0.000 S
ATOM     14   O  SGN B   1      37.927  15.827  26.5700  0.00  0.00     0.000 OA
ATOM     15   O  SGN B   1      36.815  14.220  25.0950  0.00  0.00     0.000 OA
ATOM     16   O  SGN B   1      39.201  14.473  24.9670  0.00  0.00     0.000 OA
ENDBRANCH 2 13
BRANCH 5 17
ATOM     17   C  SGN B   1      36.332  20.913  22.1450  0.00  0.00     0.000 C
ATOM     18   O  SGN B   1      35.209  20.351  21.4370  0.00  0.00     0.000 O
ATOM     19   S  SGN B   1      35.315  20.349  19.8410  0.00  0.00     0.000 S
ATOM     20   O  SGN B   1      33.998  19.965  19.3780  0.00  0.00     0.000 OA
ATOM     21   O  SGN B   1      35.671  21.709  19.5100  0.00  0.00     0.000 OA
ATOM     22   O  SGN B   1      36.344  19.380  19.5330  0.00  0.00     0.000 OA
ENDBRANCH 5 17
BRANCH 1 23
ATOM     23  O4  IDS B   2      35.220  17.757  24.7420  0.00  0.00     0.000 O
BRANCH 23 27
ATOM     24  C1  IDS B   2      31.699  18.376  26.8510  0.00  0.00     0.000 C
ATOM     25  C2  IDS B   2      31.859  19.210  25.5600  0.00  0.00     0.000 C
ATOM     26  C3  IDS B   2      33.025  18.697  24.7200  0.00  0.00     0.000 C
ATOM     27  C4  IDS B   2      34.340  18.628  25.4830  0.00  0.00     0.000 C
ATOM     28  C5  IDS B   2      34.083  18.186  26.9380  0.00  0.00     0.000 C
ATOM     29  O5  IDS B   2      32.833  17.523  27.0530  0.00  0.00     0.000 O
ATOM     30   O  IDS B   2      33.218  19.563  23.6080  0.00  0.00     0.000 O
ATOM     32  HD  IDS B   2      33.645  20.289  23.8110  0.00  0.00     0.000 HD
BRANCH 25 32
ATOM     32   O  IDS B   2      30.643  19.171  24.7120  0.00  0.00     0.000 O
ATOM     33   S  IDS B   2      29.817  20.541  24.3080  0.00  0.00     0.000 S
ATOM     34   O  IDS B   2      28.584  20.099  23.6760  0.00  0.00     0.000 OA
ATOM     35   O  IDS B   2      29.550  21.318  25.5100  0.00  0.00     0.000 OA
ATOM     36   O  IDS B   2      30.664  21.246  23.3730  0.00  0.00     0.000 OA
ENDBRANCH 25 32
BRANCH 28 37
ATOM     37   C  IDS B   2      35.157  17.320  27.6290  0.00  0.00     0.000 C
ATOM     38   O  IDS B   2      36.123  17.959  27.9710  0.00  0.00     0.000 OA
ATOM     39   O  IDS B   2      35.079  16.098  27.9030  0.00  0.00     0.000 OA
ENDBRANCH 28 37
BRANCH 24 40
ATOM     40  O4  SUS B   3      30.762  18.718  27.7600  0.00  0.00     0.000 O
BRANCH 40 44
ATOM     41  C1  SUS B   3      28.447  16.323  30.3010  0.00  0.00     0.000 C
ATOM     42  C2  SUS B   3      29.969  16.345  30.5460  0.00  0.00     0.000 C
ATOM     43  C3  SUS B   3      30.567  17.586  29.8870  0.00  0.00     0.000 C
ATOM     44  C4  SUS B   3      30.178  17.598  28.4170  0.00  0.00     0.000 C
ATOM     45  C5  SUS B   3      28.668  17.669  28.3100  0.00  0.00     0.000 C
ATOM     46  O5  SUS B   3      28.118  16.482  28.9160  0.00  0.00     0.000 O
BRANCH 42 49
ATOM     47   N  SUS B   3      29.910  14.981  31.0970  0.00  0.00     0.000 N
ATOM     49  HD  SUS B   3      29.122  14.673  31.2850  0.00  0.00     0.000 HD
ATOM     49   S  SUS B   3      30.837  14.796  32.3910  0.00  0.00     0.000 S
ATOM     50   O  SUS B   3      30.465  15.725  33.3840  0.00  0.00     0.000 OA
ATOM     51   O  SUS B   3      30.345  13.373  32.7620  0.00  0.00     0.000 OA
ATOM     52   O  SUS B   3      32.189  14.768  31.9960  0.00  0.00     0.000 OA
ENDBRANCH 42 49
BRANCH 43 53
ATOM     53   O  SUS B   3      32.035  17.508  30.0160  0.00  0.00     0.000 O
ATOM     54   S  SUS B   3      32.761  18.607  31.0000  0.00  0.00     0.000 S
ATOM     55   O  SUS B   3      32.419  18.259  32.3710  0.00  0.00     0.000 OA
ATOM     56   O  SUS B   3      34.175  18.471  30.6960  0.00  0.00     0.000 OA
ATOM     57   O  SUS B   3      32.215  19.916  30.6320  0.00  0.00     0.000 OA
ENDBRANCH 43 53
BRANCH 45 58
ATOM     58   C  SUS B   3      28.206  17.786  26.8740  0.00  0.00     0.000 C
ATOM     59   S  SUS B   3      27.215  16.421  24.9410  0.00  0.00     0.000 S
ATOM     60   O  SUS B   3      27.569  16.560  26.4780  0.00  0.00     0.000 O
ATOM     61   O  SUS B   3      28.470  16.094  24.2910  0.00  0.00     0.000 OA
ATOM     62   O  SUS B   3      26.302  15.310  24.9760  0.00  0.00     0.000 OA
ATOM     63   O  SUS B   3      26.644  17.666  24.5680  0.00  0.00     0.000 OA
ENDBRANCH 45 58
BRANCH 41 64
ATOM     64  O4  IDS B   4      27.739  17.143  31.1450  0.00  0.00     0.000 O
BRANCH 64 68
ATOM     65  C1  IDS B   4      25.315  18.249  33.6290  0.00  0.00     0.000 C
ATOM     66  C2  IDS B   4      26.429  17.270  34.0200  0.00  0.00     0.000 C
ATOM     67  C3  IDS B   4      26.620  16.117  33.0480  0.00  0.00     0.000 C
ATOM     68  C4  IDS B   4      26.505  16.544  31.5970  0.00  0.00     0.000 C
ATOM     69  C5  IDS B   4      25.291  17.474  31.4680  0.00  0.00     0.000 C
ATOM     70  O5  IDS B   4      25.498  18.633  32.2790  0.00  0.00     0.000 O
ATOM     71   O  IDS B   4      25.631  15.152  33.3420  0.00  0.00     0.000 O
ATOM     73  HD  IDS B   4      26.130  15.842  33.5010  0.00  0.00     0.000 HD
BRANCH 66 73
ATOM     73   O  IDS B   4      27.709  17.990  34.0300  0.00  0.00     0.000 O
ATOM     74   S  IDS B   4      28.432  18.231  35.4570  0.00  0.00     0.000 S
ATOM     75   O  IDS B   4      27.475  18.930  36.2880  0.00  0.00     0.000 OA
ATOM     76   O  IDS B   4      29.573  19.026  35.0810  0.00  0.00     0.000 OA
ATOM     77   O  IDS B   4      28.762  16.915  35.9500  0.00  0.00     0.000 OA
ENDBRANCH 66 73
BRANCH 69 78
ATOM     78   C  IDS B   4      24.908  17.814  30.0340  0.00  0.00     0.000 C
ATOM     79   O  IDS B   4      24.702  18.991  29.7410  0.00  0.00     0.000 OA
ATOM     80   O  IDS B   4      24.920  16.906  29.1830  0.00  0.00     0.000 OA
ENDBRANCH 69 78
BRANCH 65 81
ATOM     81  O4  SGN B   5      24.106  17.714  33.9570  0.00  0.00     0.000 O
BRANCH 81 85
ATOM     82  C1  SGN B   5      20.095  18.821  34.5310  0.00  0.00     0.000 C
ATOM     83  C2  SGN B   5      20.910  19.648  33.5250  0.00  0.00     0.000 C
ATOM     84  C3  SGN B   5      22.153  18.856  33.0960  0.00  0.00     0.000 C
ATOM     85  C4  SGN B   5      22.947  18.464  34.3300  0.00  0.00     0.000 C
ATOM     86  C5  SGN B   5      22.044  17.631  35.2370  0.00  0.00     0.000 C
ATOM     87  O5  SGN B   5      20.910  18.431  35.6200  0.00  0.00     0.000 O
ATOM     88   O  SGN B   5      22.936  19.632  32.2160  0.00  0.00     0.000 O
ATOM     90  HD  SGN B   5      22.404  18.990  31.9820  0.00  0.00     0.000 HD
BRANCH 83 92
ATOM     90   N  SGN B   5      19.683  19.972  32.7720  0.00  0.00     0.000 N
ATOM     92  HD  SGN B   5      19.005  19.528  33.0770  0.00  0.00     0.000 HD
ATOM     92   S  SGN B   5      19.391  21.507  32.4370  0.00  0.00     0.000 S
ATOM     93   O  SGN B   5      18.150  21.484  31.7210  0.00  0.00     0.000 OA
ATOM     94   O  SGN B   5      19.486  22.198  33.6770  0.00  0.00     0.000 OA
ATOM     95   O  SGN B   5      20.563  21.944  31.5850  0.00  0.00     0.000 OA
ENDBRANCH 83 92
BRANCH 86 96
ATOM     96   C  SGN B   5      22.713  17.156  36.5100  0.00  0.00     0.000 C
ATOM     97   O  SGN B   5      22.493  15.756  36.7010  0.00  0.00     0.000 O
ATOM     98   S  SGN B   5      23.797  14.870  36.9940  0.00  0.00     0.000 S
ATOM     99   O  SGN B   5      23.237  13.584  37.3350  0.00  0.00     0.000 OA
ATOM    100   O  SGN B   5      24.590  14.877  35.8180  0.00  0.00     0.000 OA
ATOM    101   O  SGN B   5      24.428  15.522  38.0950  0.00  0.00     0.000 OA
ENDBRANCH 86 96
BRANCH 82 102
ATOM    102  O4  IDS B   6      19.511  17.730  33.9610  0.00  0.00     0.000 O
BRANCH 102 106
ATOM    103  C1  IDS B   6      16.637  15.720  32.9810  0.00  0.00     0.000 C
ATOM    104  C2  IDS B   6      16.599  17.252  32.8700  0.00  0.00     0.000 C
ATOM    105  C3  IDS B   6      17.094  17.998  34.0950  0.00  0.00     0.000 C
ATOM    106  C4  IDS B   6      18.326  17.359  34.7110  0.00  0.00     0.000 C
ATOM    107  C5  IDS B   6      18.158  15.838  34.7470  0.00  0.00     0.000 C
ATOM    108  O5  IDS B   6      17.904  15.299  33.4480  0.00  0.00     0.000 O
ATOM    109   O  IDS B   6      16.034  18.056  35.0340  0.00  0.00     0.000 O
ATOM    111  HD  IDS B   6      15.523  17.392  34.8150  0.00  0.00     0.000 HD
BRANCH 104 111
ATOM    111   O  IDS B   6      17.483  17.676  31.7740  0.00  0.00     0.000 O
ATOM    112   S  IDS B   6      16.809  18.107  30.3870  0.00  0.00     0.000 S
ATOM    113   O  IDS B   6      16.055  16.937  29.9670  0.00  0.00     0.000 OA
ATOM    114   O  IDS B   6      15.998  19.308  30.6190  0.00  0.00     0.000 OA
ATOM    115   O  IDS B   6      18.006  18.345  29.6100  0.00  0.00     0.000 OA
ENDBRANCH 104 111
BRANCH 107 116
ATOM    116   C  IDS B   6      19.413  15.205  35.3330  0.00  0.00     0.000 C
ATOM    117   O  IDS B   6      20.180  14.699  34.5530  0.00  0.00     0.000 OA
ATOM    118   O  IDS B   6      19.622  15.205  36.5360  0.00  0.00     0.000 OA
ENDBRANCH 107 116
BRANCH 103 119
ATOM    119  O4  SGN B   7      15.499  15.418  33.6570  0.00  0.00     0.000 O
BRANCH 119 123
ATOM    120  C1  SGN B   7      12.774  12.246  33.7130  0.00  0.00     0.000 C
ATOM    121  C2  SGN B   7      14.036  12.119  34.5880  0.00  0.00     0.000 C
ATOM    122  C3  SGN B   7      14.704  13.487  34.7710  0.00  0.00     0.000 C
ATOM    123  C4  SGN B   7      14.959  14.119  33.4120  0.00  0.00     0.000 C
ATOM    124  C5  SGN B   7      13.645  14.195  32.6170  0.00  0.00     0.000 C
ATOM    125  O5  SGN B   7      13.052  12.885  32.4690  0.00  0.00     0.000 O
ATOM    126   O  SGN B   7      15.923  13.317  35.5030  0.00  0.00     0.000 O
ATOM    128  HD  SGN B   7      15.181  12.972  35.2190  0.00  0.00     0.000 HD
BRANCH 121 130
ATOM    128   N  SGN B   7      13.249  11.176  35.3870  0.00  0.00     0.000 N
ATOM    130  HD  SGN B   7      13.377  10.557  34.7950  0.00  0.00     0.000 HD
ATOM    130   S  SGN B   7      13.929   9.966  36.2040  0.00  0.00     0.000 S
ATOM    131   O  SGN B   7      14.979  10.566  36.9530  0.00  0.00     0.000 OA
ATOM    132   O  SGN B   7      12.903   9.239  36.8620  0.00  0.00     0.000 OA
ATOM    133   O  SGN B   7      14.372   9.041  35.0200  0.00  0.00     0.000 OA
ENDBRANCH 121 130
BRANCH 124 134
ATOM    134   C  SGN B   7      13.813  14.700  31.2140  0.00  0.00     0.000 C
ATOM    135   O  SGN B   7      13.171  13.779  30.3160  0.00  0.00     0.000 O
ATOM    136   S  SGN B   7      13.101  14.207  28.8060  0.00  0.00     0.000 S
ATOM    137   O  SGN B   7      12.517  13.095  28.0950  0.00  0.00     0.000 OA
ATOM    138   O  SGN B   7      14.471  14.466  28.4220  0.00  0.00     0.000 OA
ATOM    139   O  SGN B   7      12.256  15.389  28.8550  0.00  0.00     0.000 OA
ENDBRANCH 124 134
BRANCH 120 140
ATOM    140  O4  IDS B   8      11.624  12.860  34.0120  0.00  0.00     0.000 O
BRANCH 140 144
ATOM    141  C1  IDS B   8       8.344  14.333  34.1900  0.00  0.00     0.000 C
ATOM    142  C2  IDS B   8       9.621  15.196  34.4020  0.00  0.00     0.000 C
ATOM    143  C3  IDS B   8      10.615  14.568  35.3960  0.00  0.00     0.000 C
ATOM    144  C4  IDS B   8      10.792  13.069  35.1600  0.00  0.00     0.000 C
ATOM    145  C5  IDS B   8       9.425  12.401  34.9480  0.00  0.00     0.000 C
ATOM    146  O5  IDS B   8       8.709  12.997  33.8690  0.00  0.00     0.000 O
BRANCH 142 147
ATOM    147   O  IDS B   8      10.333  15.354  33.1070  0.00  0.00     0.000 O
ATOM    148   S  IDS B   8      10.425  16.798  32.3740  0.00  0.00     0.000 S
ATOM    149   O  IDS B   8       9.427  17.656  32.9710  0.00  0.00     0.000 OA
ATOM    150   O  IDS B   8      11.779  17.264  32.6070  0.00  0.00     0.000 OA
ATOM    151   O  IDS B   8      10.146  16.534  30.9750  0.00  0.00     0.000 OA
ENDBRANCH 142 147
BRANCH 145 152
ATOM    152   C  IDS B   8       9.541  10.929  34.6100  0.00  0.00     0.000 C
ATOM    153   O  IDS B   8       8.941  10.483  33.6390  0.00  0.00     0.000 OA
ATOM    154   O  IDS B   8      10.244  10.208  35.2950  0.00  0.00     0.000 OA
ENDBRANCH 145 152
ENDBRANCH 140 144
ENDBRANCH 120 140
ENDBRANCH 119 123
ENDBRANCH 103 119
ENDBRANCH 102 106
ENDBRANCH 82 102
ENDBRANCH 81 85
ENDBRANCH 65 81
ENDBRANCH 64 68
ENDBRANCH 41 64
ENDBRANCH 40 44
ENDBRANCH 24 40
ENDBRANCH 23 27
ENDBRANCH 1 23
TORSDOF 31
ENDMDL
MODEL 97
REMARK VINA RESULT:      -6.5      4.220      7.191
ROOT
ATOM      1  C1  SGN B   1      28.007  16.570  13.6450  0.00  0.00     0.000 C
ATOM      2  C2  SGN B   1      27.460  16.563  12.2080  0.00  0.00     0.000 C
ATOM      3  C3  SGN B   1      26.991  15.158  11.8130  0.00  0.00     0.000 C
ATOM      4  C4  SGN B   1      28.123  14.154  11.9980  0.00  0.00     0.000 C
ATOM      5  C5  SGN B   1      28.711  14.315  13.3980  0.00  0.00     0.000 C
ATOM      6  O5  SGN B   1      29.117  15.684  13.5950  0.00  0.00     0.000 O
ATOM      7   O  SGN B   1      26.526  15.145  10.4680  0.00  0.00     0.000 O
ATOM      9  HD  SGN B   1      27.353  15.384  10.3670  0.00  0.00     0.000 HD
ATOM      9   O  SGN B   1      27.621  12.841  11.8280  0.00  0.00     0.000 O
ATOM     11  HD  SGN B   1      28.447  13.080  11.7260  0.00  0.00     0.000 HD
ENDROOT
BRANCH 2 13
ATOM     11   N  SGN B   1      27.677  17.992  11.9150  0.00  0.00     0.000 N
ATOM     13  HD  SGN B   1      27.148  17.750  12.5570  0.00  0.00     0.000 HD
ATOM     13   S  SGN B   1      26.562  19.111  12.2220  0.00  0.00     0.000 S
ATOM     14   O  SGN B   1      25.436  18.520  12.8330  0.00  0.00     0.000 OA
ATOM     15   O  SGN B   1      27.199  20.220  12.8500  0.00  0.00     0.000 OA
ATOM     16   O  SGN B   1      26.256  19.530  10.7510  0.00  0.00     0.000 OA
ENDBRANCH 2 13
BRANCH 5 17
ATOM     17   C  SGN B   1      29.916  13.447  13.6620  0.00  0.00     0.000 C
ATOM     18   O  SGN B   1      29.554  12.285  14.4350  0.00  0.00     0.000 O
ATOM     19   S  SGN B   1      30.524  11.924  15.6540  0.00  0.00     0.000 S
ATOM     20   O  SGN B   1      30.088  10.619  16.1060  0.00  0.00     0.000 OA
ATOM     21   O  SGN B   1      31.843  11.921  15.0660  0.00  0.00     0.000 OA
ATOM     22   O  SGN B   1      30.315  12.974  16.6270  0.00  0.00     0.000 OA
ENDBRANCH 5 17
BRANCH 1 23
ATOM     23  O4  IDS B   2      27.589  16.751  14.9300  0.00  0.00     0.000 O
BRANCH 23 27
ATOM     24  C1  IDS B   2      25.506  17.449  18.4520  0.00  0.00     0.000 C
ATOM     25  C2  IDS B   2      24.698  16.774  17.3220  0.00  0.00     0.000 C
ATOM     26  C3  IDS B   2      25.619  16.298  16.2020  0.00  0.00     0.000 C
ATOM     27  C4  IDS B   2      26.513  17.397  15.6430  0.00  0.00     0.000 C
ATOM     28  C5  IDS B   2      26.972  18.332  16.7790  0.00  0.00     0.000 C
ATOM     29  O5  IDS B   2      26.858  17.691  18.0410  0.00  0.00     0.000 O
ATOM     30   O  IDS B   2      24.831  15.798  15.1280  0.00  0.00     0.000 O
ATOM     32  HD  IDS B   2      24.497  16.422  14.6290  0.00  0.00     0.000 HD
BRANCH 25 32
ATOM     32   O  IDS B   2      23.933  15.597  17.8040  0.00  0.00     0.000 O
ATOM     33   S  IDS B   2      24.665  14.153  18.1210  0.00  0.00     0.000 S
ATOM     34   O  IDS B   2      23.593  13.196  18.3470  0.00  0.00     0.000 OA
ATOM     35   O  IDS B   2      25.491  13.768  16.9850  0.00  0.00     0.000 OA
ATOM     36   O  IDS B   2      25.443  14.364  19.3200  0.00  0.00     0.000 OA
ENDBRANCH 25 32
BRANCH 28 37
ATOM     37   C  IDS B   2      28.380  18.954  16.6770  0.00  0.00     0.000 C
ATOM     38   O  IDS B   2      29.233  18.267  17.1880  0.00  0.00     0.000 OA
ATOM     39   O  IDS B   2      28.695  20.016  16.0850  0.00  0.00     0.000 OA
ENDBRANCH 28 37
BRANCH 24 40
ATOM     40  O4  SUS B   3      24.862  17.997  19.5040  0.00  0.00     0.000 O
BRANCH 40 44
ATOM     41  C1  SUS B   3      24.878  16.917  23.5510  0.00  0.00     0.000 C
ATOM     42  C2  SUS B   3      26.224  17.339  22.9290  0.00  0.00     0.000 C
ATOM     43  C3  SUS B   3      25.961  18.135  21.6520  0.00  0.00     0.000 C
ATOM     44  C4  SUS B   3      25.086  17.304  20.7270  0.00  0.00     0.000 C
ATOM     45  C5  SUS B   3      23.763  17.034  21.4150  0.00  0.00     0.000 C
ATOM     46  O5  SUS B   3      24.024  16.264  22.6060  0.00  0.00     0.000 O
BRANCH 42 49
ATOM     47   N  SUS B   3      26.923  17.946  24.0750  0.00  0.00     0.000 N
ATOM     49  HD  SUS B   3      27.104  18.791  24.0150  0.00  0.00     0.000 HD
ATOM     49   S  SUS B   3      28.274  17.173  24.4550  0.00  0.00     0.000 S
ATOM     50   O  SUS B   3      29.136  17.138  23.3400  0.00  0.00     0.000 OA
ATOM     51   O  SUS B   3      28.778  18.198  25.5030  0.00  0.00     0.000 OA
ATOM     52   O  SUS B   3      27.953  15.948  25.0720  0.00  0.00     0.000 OA
ENDBRANCH 42 49
BRANCH 43 53
ATOM     53   O  SUS B   3      27.261  18.402  21.0070  0.00  0.00     0.000 O
ATOM     54   S  SUS B   3      27.775  19.963  20.9760  0.00  0.00     0.000 S
ATOM     55   O  SUS B   3      28.147  20.327  22.3370  0.00  0.00     0.000 OA
ATOM     56   O  SUS B   3      28.892  19.948  20.0480  0.00  0.00     0.000 OA
ATOM     57   O  SUS B   3      26.642  20.764  20.5040  0.00  0.00     0.000 OA
ENDBRANCH 43 53
BRANCH 45 58
ATOM     58   C  SUS B   3      22.797  16.295  20.5150  0.00  0.00     0.000 C
ATOM     59   S  SUS B   3      20.468  16.473  19.4510  0.00  0.00     0.000 S
ATOM     60   O  SUS B   3      21.685  17.151  20.2050  0.00  0.00     0.000 O
ATOM     61   O  SUS B   3      19.747  15.742  20.4760  0.00  0.00     0.000 OA
ATOM     62   O  SUS B   3      19.756  17.635  18.9920  0.00  0.00     0.000 OA
ATOM     63   O  SUS B   3      21.051  15.675  18.4310  0.00  0.00     0.000 OA
ENDBRANCH 45 58
BRANCH 41 64
ATOM     64  O4  IDS B   4      24.264  17.914  24.2690  0.00  0.00     0.000 O
BRANCH 64 68
ATOM     65  C1  IDS B   4      23.218  19.706  27.2640  0.00  0.00     0.000 C
ATOM     66  C2  IDS B   4      24.622  19.095  27.1810  0.00  0.00     0.000 C
ATOM     67  C3  IDS B   4      24.656  17.668  26.6600  0.00  0.00     0.000 C
ATOM     68  C4  IDS B   4      23.695  17.438  25.5090  0.00  0.00     0.000 C
ATOM     69  C5  IDS B   4      22.358  18.103  25.8630  0.00  0.00     0.000 C
ATOM     70  O5  IDS B   4      22.561  19.509  26.0250  0.00  0.00     0.000 O
ATOM     71   O  IDS B   4      24.321  16.820  27.7390  0.00  0.00     0.000 O
ATOM     73  HD  IDS B   4      24.580  17.559  27.3690  0.00  0.00     0.000 HD
BRANCH 66 73
ATOM     73   O  IDS B   4      25.424  19.878  26.2300  0.00  0.00     0.000 O
ATOM     74   S  IDS B   4      26.484  20.943  26.8280  0.00  0.00     0.000 S
ATOM     75   O  IDS B   4      25.730  21.837  27.6810  0.00  0.00     0.000 OA
ATOM     76   O  IDS B   4      26.991  21.562  25.6300  0.00  0.00     0.000 OA
ATOM     77   O  IDS B   4      27.458  20.155  27.5470  0.00  0.00     0.000 OA
ENDBRANCH 66 73
BRANCH 69 78
ATOM     78   C  IDS B   4      21.219  17.775  24.9070  0.00  0.00     0.000 C
ATOM     79   O  IDS B   4      21.384  17.971  23.7030  0.00  0.00     0.000 OA
ATOM     80   O  IDS B   4      20.201  17.222  25.3610  0.00  0.00     0.000 OA
ENDBRANCH 69 78
BRANCH 65 81
ATOM     81  O4  SGN B   5      22.585  19.238  28.3760  0.00  0.00     0.000 O
BRANCH 81 85
ATOM     82  C1  SGN B   5      19.623  20.161  31.2060  0.00  0.00     0.000 C
ATOM     83  C2  SGN B   5      19.229  20.263  29.7250  0.00  0.00     0.000 C
ATOM     84  C3  SGN B   5      20.228  19.469  28.8720  0.00  0.00     0.000 C
ATOM     85  C4  SGN B   5      21.634  19.970  29.1520  0.00  0.00     0.000 C
ATOM     86  C5  SGN B   5      21.917  19.797  30.6420  0.00  0.00     0.000 C
ATOM     87  O5  SGN B   5      20.963  20.577  31.3870  0.00  0.00     0.000 O
ATOM     88   O  SGN B   5      19.906  19.605  27.5050  0.00  0.00     0.000 O
ATOM     90  HD  SGN B   5      19.726  18.916  27.9980  0.00  0.00     0.000 HD
BRANCH 83 92
ATOM     90   N  SGN B   5      17.971  20.623  30.4080  0.00  0.00     0.000 N
ATOM     92  HD  SGN B   5      18.118  21.180  31.0550  0.00  0.00     0.000 HD
ATOM     92   S  SGN B   5      16.694  20.954  29.5060  0.00  0.00     0.000 S
ATOM     93   O  SGN B   5      15.664  21.264  30.4510  0.00  0.00     0.000 OA
ATOM     94   O  SGN B   5      17.126  21.937  28.5730  0.00  0.00     0.000 OA
ATOM     95   O  SGN B   5      16.430  19.681  28.7320  0.00  0.00     0.000 OA
ENDBRANCH 83 92
BRANCH 86 96
ATOM     96   C  SGN B   5      23.300  20.247  31.0680  0.00  0.00     0.000 C
ATOM     97   O  SGN B   5      23.908  19.269  31.9140  0.00  0.00     0.000 O
ATOM     98   S  SGN B   5      25.389  18.807  31.5070  0.00  0.00     0.000 S
ATOM     99   O  SGN B   5      25.791  18.000  32.6340  0.00  0.00     0.000 OA
ATOM    100   O  SGN B   5      25.294  18.104  30.2790  0.00  0.00     0.000 OA
ATOM    101   O  SGN B   5      26.122  20.026  31.3950  0.00  0.00     0.000 OA
ENDBRANCH 86 96
BRANCH 82 102
ATOM    102  O4  IDS B   6      19.443  18.908  31.7120  0.00  0.00     0.000 O
BRANCH 102 106
ATOM    103  C1  IDS B   6      18.008  16.343  33.8610  0.00  0.00     0.000 C
ATOM    104  C2  IDS B   6      17.105  17.266  33.0280  0.00  0.00     0.000 C
ATOM    105  C3  IDS B   6      17.451  18.741  33.1020  0.00  0.00     0.000 C
ATOM    106  C4  IDS B   6      18.947  18.994  33.0720  0.00  0.00     0.000 C
ATOM    107  C5  IDS B   6      19.661  17.986  33.9770  0.00  0.00     0.000 C
ATOM    108  O5  IDS B   6      19.369  16.637  33.6070  0.00  0.00     0.000 O
ATOM    109   O  IDS B   6      16.873  19.271  34.2840  0.00  0.00     0.000 O
ATOM    111  HD  IDS B   6      16.773  18.579  34.7950  0.00  0.00     0.000 HD
BRANCH 104 111
ATOM    111   O  IDS B   6      17.233  16.907  31.6080  0.00  0.00     0.000 O
ATOM    112   S  IDS B   6      15.912  16.462  30.8210  0.00  0.00     0.000 S
ATOM    113   O  IDS B   6      15.416  15.311  31.5610  0.00  0.00     0.000 OA
ATOM    114   O  IDS B   6      14.991  17.603  30.7760  0.00  0.00     0.000 OA
ATOM    115   O  IDS B   6      16.502  16.128  29.5430  0.00  0.00     0.000 OA
ENDBRANCH 104 111
BRANCH 107 116
ATOM    116   C  IDS B   6      21.164  18.226  33.9120  0.00  0.00     0.000 C
ATOM    117   O  IDS B   6      21.831  17.354  33.4150  0.00  0.00     0.000 OA
ATOM    118   O  IDS B   6      21.664  19.249  34.3520  0.00  0.00     0.000 OA
ENDBRANCH 107 116
BRANCH 103 119
ATOM    119  O4  SGN B   7      17.489  16.429  35.1130  0.00  0.00     0.000 O
BRANCH 119 123
ATOM    120  C1  SGN B   7      17.896  14.243  38.6550  0.00  0.00     0.000 C
ATOM    121  C2  SGN B   7      18.780  15.492  38.4820  0.00  0.00     0.000 C
ATOM    122  C3  SGN B   7      18.238  16.383  37.3570  0.00  0.00     0.000 C
ATOM    123  C4  SGN B   7      18.075  15.565  36.0870  0.00  0.00     0.000 C
ATOM    124  C5  SGN B   7      17.185  14.342  36.3650  0.00  0.00     0.000 C
ATOM    125  O5  SGN B   7      17.733  13.532  37.4290  0.00  0.00     0.000 O
ATOM    126   O  SGN B   7      19.137  17.481  37.1580  0.00  0.00     0.000 O
ATOM    128  HD  SGN B   7      18.899  16.803  37.6420  0.00  0.00     0.000 HD
BRANCH 121 130
ATOM    128   N  SGN B   7      18.788  15.686  39.9340  0.00  0.00     0.000 N
ATOM    130  HD  SGN B   7      19.220  14.943  40.0380  0.00  0.00     0.000 HD
ATOM    130   S  SGN B   7      20.120  16.100  40.7390  0.00  0.00     0.000 S
ATOM    131   O  SGN B   7      20.643  17.223  40.0400  0.00  0.00     0.000 OA
ATOM    132   O  SGN B   7      19.796  16.199  42.1170  0.00  0.00     0.000 OA
ATOM    133   O  SGN B   7      20.943  14.773  40.6210  0.00  0.00     0.000 OA
ENDBRANCH 121 130
BRANCH 124 134
ATOM    134   C  SGN B   7      17.057  13.407  35.1980  0.00  0.00     0.000 C
ATOM    135   O  SGN B   7      16.800  12.084  35.6980  0.00  0.00     0.000 O
ATOM    136   S  SGN B   7      16.481  10.980  34.6270  0.00  0.00     0.000 S
ATOM    137   O  SGN B   7      16.364   9.735  35.3480  0.00  0.00     0.000 OA
ATOM    138   O  SGN B   7      17.603  11.002  33.7160  0.00  0.00     0.000 OA
ATOM    139   O  SGN B   7      15.230  11.452  34.0540  0.00  0.00     0.000 OA
ENDBRANCH 124 134
BRANCH 120 140
ATOM    140  O4  IDS B   8      16.636  14.181  39.1010  0.00  0.00     0.000 O
BRANCH 140 144
ATOM    141  C1  IDS B   8      13.357  14.967  40.3610  0.00  0.00     0.000 C
ATOM    142  C2  IDS B   8      14.629  15.604  40.9900  0.00  0.00     0.000 C
ATOM    143  C3  IDS B   8      15.727  14.572  41.3070  0.00  0.00     0.000 C
ATOM    144  C4  IDS B   8      15.913  13.566  40.1730  0.00  0.00     0.000 C
ATOM    145  C5  IDS B   8      14.546  13.073  39.6730  0.00  0.00     0.000 C
ATOM    146  O5  IDS B   8      13.718  14.154  39.2510  0.00  0.00     0.000 O
BRANCH 142 147
ATOM    147   O  IDS B   8      15.211  16.588  40.0390  0.00  0.00     0.000 O
ATOM    148   S  IDS B   8      15.638  18.073  40.5310  0.00  0.00     0.000 S
ATOM    149   O  IDS B   8      15.003  18.312  41.8080  0.00  0.00     0.000 OA
ATOM    150   O  IDS B   8      17.086  18.051  40.6200  0.00  0.00     0.000 OA
ATOM    151   O  IDS B   8      15.144  18.972  39.5050  0.00  0.00     0.000 OA
ENDBRANCH 142 147
BRANCH 145 152
ATOM    152   C  IDS B   8      14.661  12.145  38.4800  0.00  0.00     0.000 C
ATOM    153   O  IDS B   8      14.089  12.432  37.4350  0.00  0.00     0.000 OA
ATOM    154   O  IDS B   8      15.337  11.136  38.5660  0.00  0.00     0.000 OA
ENDBRANCH 145 152
ENDBRANCH 140 144
ENDBRANCH 120 140
ENDBRANCH 119 123
ENDBRANCH 103 119
ENDBRANCH 102 106
ENDBRANCH 82 102
ENDBRANCH 81 85
ENDBRANCH 65 81
ENDBRANCH 64 68
ENDBRANCH 41 64
ENDBRANCH 40 44
ENDBRANCH 24 40
ENDBRANCH 23 27
ENDBRANCH 1 23
TORSDOF 31
ENDMDL
MODEL 98
REMARK VINA RESULT:      -6.5     10.148     17.248
ROOT
ATOM      1  C1  SGN B   1      24.281  18.484  25.9430  0.00  0.00     0.000 C
ATOM      2  C2  SGN B   1      24.535  16.970  26.0170  0.00  0.00     0.000 C
ATOM      3  C3  SGN B   1      25.270  16.606  27.3110  0.00  0.00     0.000 C
ATOM      4  C4  SGN B   1      26.563  17.407  27.4250  0.00  0.00     0.000 C
ATOM      5  C5  SGN B   1      26.255  18.886  27.2000  0.00  0.00     0.000 C
ATOM      6  O5  SGN B   1      25.584  19.051  25.9360  0.00  0.00     0.000 O
ATOM      7   O  SGN B   1      25.543  15.210  27.3560  0.00  0.00     0.000 O
ATOM      9  HD  SGN B   1      25.979  15.452  26.6490  0.00  0.00     0.000 HD
ATOM      9   O  SGN B   1      27.124  17.215  28.7110  0.00  0.00     0.000 O
ATOM     11  HD  SGN B   1      27.561  17.457  28.0030  0.00  0.00     0.000 HD
ENDROOT
BRANCH 2 13
ATOM     11   N  SGN B   1      23.920  16.559  24.7410  0.00  0.00     0.000 N
ATOM     13  HD  SGN B   1      23.455  16.980  25.3380  0.00  0.00     0.000 HD
ATOM     13   S  SGN B   1      22.349  16.235  24.6080  0.00  0.00     0.000 S
ATOM     14   O  SGN B   1      21.703  16.455  25.8420  0.00  0.00     0.000 OA
ATOM     15   O  SGN B   1      21.856  16.875  23.4350  0.00  0.00     0.000 OA
ATOM     16   O  SGN B   1      22.461  14.712  24.2900  0.00  0.00     0.000 OA
ENDBRANCH 2 13
BRANCH 5 17
ATOM     17   C  SGN B   1      27.476  19.771  27.1800  0.00  0.00     0.000 C
ATOM     18   O  SGN B   1      27.105  21.163  27.2460  0.00  0.00     0.000 O
ATOM     19   S  SGN B   1      27.858  22.139  26.2280  0.00  0.00     0.000 S
ATOM     20   O  SGN B   1      27.492  23.475  26.6480  0.00  0.00     0.000 OA
ATOM     21   O  SGN B   1      29.257  21.836  26.4190  0.00  0.00     0.000 OA
ATOM     22   O  SGN B   1      27.352  21.783  24.9200  0.00  0.00     0.000 OA
ENDBRANCH 5 17
BRANCH 1 23
ATOM     23  O4  IDS B   2      23.350  19.415  26.2970  0.00  0.00     0.000 O
BRANCH 23 27
ATOM     24  C1  IDS B   2      20.059  20.068  23.8510  0.00  0.00     0.000 C
ATOM     25  C2  IDS B   2      21.389  20.680  23.3580  0.00  0.00     0.000 C
ATOM     26  C3  IDS B   2      22.570  20.136  24.1580  0.00  0.00     0.000 C
ATOM     27  C4  IDS B   2      22.420  20.318  25.6620  0.00  0.00     0.000 C
ATOM     28  C5  IDS B   2      20.948  20.110  26.0730  0.00  0.00     0.000 C
ATOM     29  O5  IDS B   2      20.246  19.367  25.0880  0.00  0.00     0.000 O
ATOM     30   O  IDS B   2      23.756  20.813  23.7600  0.00  0.00     0.000 O
ATOM     32  HD  IDS B   2      23.838  21.598  24.1170  0.00  0.00     0.000 HD
BRANCH 25 32
ATOM     32   O  IDS B   2      21.645  20.386  21.9260  0.00  0.00     0.000 O
ATOM     33   S  IDS B   2      21.782  21.586  20.8020  0.00  0.00     0.000 S
ATOM     34   O  IDS B   2      21.800  20.926  19.5060  0.00  0.00     0.000 OA
ATOM     35   O  IDS B   2      20.649  22.493  20.9210  0.00  0.00     0.000 OA
ATOM     36   O  IDS B   2      23.041  22.238  21.0780  0.00  0.00     0.000 OA
ENDBRANCH 25 32
BRANCH 28 37
ATOM     37   C  IDS B   2      20.667  19.475  27.4510  0.00  0.00     0.000 C
ATOM     38   O  IDS B   2      19.722  18.722  27.4350  0.00  0.00     0.000 OA
ATOM     39   O  IDS B   2      21.341  19.620  28.5010  0.00  0.00     0.000 OA
ENDBRANCH 28 37
BRANCH 24 40
ATOM     40  O4  SUS B   3      18.891  20.475  23.3130  0.00  0.00     0.000 O
BRANCH 40 44
ATOM     41  C1  SUS B   3      15.373  18.340  22.5330  0.00  0.00     0.000 C
ATOM     42  C2  SUS B   3      15.728  18.597  24.0110  0.00  0.00     0.000 C
ATOM     43  C3  SUS B   3      16.721  19.754  24.0950  0.00  0.00     0.000 C
ATOM     44  C4  SUS B   3      17.921  19.437  23.2170  0.00  0.00     0.000 C
ATOM     45  C5  SUS B   3      17.456  19.298  21.7820  0.00  0.00     0.000 C
ATOM     46  O5  SUS B   3      16.536  18.189  21.7120  0.00  0.00     0.000 O
BRANCH 42 49
ATOM     47   N  SUS B   3      15.665  17.884  25.2980  0.00  0.00     0.000 N
ATOM     49  HD  SUS B   3      16.134  17.159  25.3630  0.00  0.00     0.000 HD
ATOM     49   S  SUS B   3      14.164  17.548  25.7460  0.00  0.00     0.000 S
ATOM     50   O  SUS B   3      13.527  16.781  24.7490  0.00  0.00     0.000 OA
ATOM     51   O  SUS B   3      14.534  16.662  26.9630  0.00  0.00     0.000 OA
ATOM     52   O  SUS B   3      13.526  18.731  26.1670  0.00  0.00     0.000 OA
ENDBRANCH 42 49
BRANCH 43 53
ATOM     53   O  SUS B   3      17.149  19.885  25.5020  0.00  0.00     0.000 O
ATOM     54   S  SUS B   3      16.846  21.318  26.2470  0.00  0.00     0.000 S
ATOM     55   O  SUS B   3      15.409  21.402  26.4650  0.00  0.00     0.000 OA
ATOM     56   O  SUS B   3      17.621  21.247  27.4730  0.00  0.00     0.000 OA
ATOM     57   O  SUS B   3      17.307  22.367  25.3320  0.00  0.00     0.000 OA
ENDBRANCH 43 53
BRANCH 45 58
ATOM     58   C  SUS B   3      18.611  19.081  20.8300  0.00  0.00     0.000 C
ATOM     59   S  SUS B   3      20.093  17.246  19.8170  0.00  0.00     0.000 S
ATOM     60   O  SUS B   3      18.793  17.671  20.6160  0.00  0.00     0.000 O
ATOM     61   O  SUS B   3      21.175  17.340  20.7780  0.00  0.00     0.000 OA
ATOM     62   O  SUS B   3      19.767  15.887  19.4780  0.00  0.00     0.000 OA
ATOM     63   O  SUS B   3      20.175  18.144  18.7200  0.00  0.00     0.000 OA
ENDBRANCH 45 58
BRANCH 41 64
ATOM     64  O4  IDS B   4      14.438  19.211  22.0290  0.00  0.00     0.000 O
BRANCH 64 68
ATOM     65  C1  IDS B   4      11.213  19.729  20.4150  0.00  0.00     0.000 C
ATOM     66  C2  IDS B   4      11.497  18.425  21.1720  0.00  0.00     0.000 C
ATOM     67  C3  IDS B   4      12.843  17.796  20.8540  0.00  0.00     0.000 C
ATOM     68  C4  IDS B   4      13.957  18.818  20.7240  0.00  0.00     0.000 C
ATOM     69  C5  IDS B   4      13.432  19.992  19.8870  0.00  0.00     0.000 C
ATOM     70  O5  IDS B   4      12.325  20.594  20.5620  0.00  0.00     0.000 O
ATOM     71   O  IDS B   4      12.699  17.090  19.6380  0.00  0.00     0.000 O
ATOM     73  HD  IDS B   4      12.421  17.489  20.3550  0.00  0.00     0.000 HD
BRANCH 66 73
ATOM     73   O  IDS B   4      11.531  18.712  22.6130  0.00  0.00     0.000 O
ATOM     74   S  IDS B   4      10.364  18.081  23.5380  0.00  0.00     0.000 S
ATOM     75   O  IDS B   4       9.108  18.536  22.9810  0.00  0.00     0.000 OA
ATOM     76   O  IDS B   4      10.672  18.645  24.8290  0.00  0.00     0.000 OA
ATOM     77   O  IDS B   4      10.540  16.651  23.4590  0.00  0.00     0.000 OA
ENDBRANCH 66 73
BRANCH 69 78
ATOM     78   C  IDS B   4      14.498  21.001  19.4810  0.00  0.00     0.000 C
ATOM     79   O  IDS B   4      14.744  21.152  18.2850  0.00  0.00     0.000 OA
ATOM     80   O  IDS B   4      15.009  21.715  20.3640  0.00  0.00     0.000 OA
ENDBRANCH 69 78
BRANCH 65 81
ATOM     81  O4  SGN B   5      10.826  19.438  19.1420  0.00  0.00     0.000 O
BRANCH 81 85
ATOM     82  C1  SGN B   5       8.302  20.649  16.0110  0.00  0.00     0.000 C
ATOM     83  C2  SGN B   5       9.518  21.538  16.3100  0.00  0.00     0.000 C
ATOM     84  C3  SGN B   5      10.549  20.742  17.1220  0.00  0.00     0.000 C
ATOM     85  C4  SGN B   5       9.887  20.194  18.3740  0.00  0.00     0.000 C
ATOM     86  C5  SGN B   5       8.715  19.313  17.9500  0.00  0.00     0.000 C
ATOM     87  O5  SGN B   5       7.775  20.117  17.2120  0.00  0.00     0.000 O
ATOM     88   O  SGN B   5      11.644  21.569  17.4500  0.00  0.00     0.000 O
ATOM     90  HD  SGN B   5      11.633  20.977  16.8170  0.00  0.00     0.000 HD
BRANCH 83 92
ATOM     90   N  SGN B   5       8.783  22.416  15.3790  0.00  0.00     0.000 N
ATOM     92  HD  SGN B   5       8.030  22.671  15.7220  0.00  0.00     0.000 HD
ATOM     92   S  SGN B   5       9.603  23.560  14.6200  0.00  0.00     0.000 S
ATOM     93   O  SGN B   5       8.622  24.224  13.8160  0.00  0.00     0.000 OA
ATOM     94   O  SGN B   5      10.297  24.276  15.6350  0.00  0.00     0.000 OA
ATOM     95   O  SGN B   5      10.637  22.815  13.8050  0.00  0.00     0.000 OA
ENDBRANCH 83 92
BRANCH 86 96
ATOM     96   C  SGN B   5       7.961  18.684  19.1040  0.00  0.00     0.000 C
ATOM     97   O  SGN B   5       7.192  19.669  19.7980  0.00  0.00     0.000 O
ATOM     98   S  SGN B   5       5.647  19.317  20.0400  0.00  0.00     0.000 S
ATOM     99   O  SGN B   5       5.212  20.378  20.9170  0.00  0.00     0.000 OA
ATOM    100   O  SGN B   5       5.010  19.297  18.7730  0.00  0.00     0.000 OA
ATOM    101   O  SGN B   5       5.670  18.037  20.6700  0.00  0.00     0.000 OA
ENDBRANCH 86 96
BRANCH 82 102
ATOM    102  O4  IDS B   6       8.589  19.646  15.1340  0.00  0.00     0.000 O
BRANCH 102 106
ATOM    103  C1  IDS B   6       7.127  18.055  12.2030  0.00  0.00     0.000 C
ATOM    104  C2  IDS B   6       6.564  19.380  12.7410  0.00  0.00     0.000 C
ATOM    105  C3  IDS B   6       6.335  19.420  14.2400  0.00  0.00     0.000 C
ATOM    106  C4  IDS B   6       7.453  18.752  15.0210  0.00  0.00     0.000 C
ATOM    107  C5  IDS B   6       7.854  17.444  14.3340  0.00  0.00     0.000 C
ATOM    108  O5  IDS B   6       8.242  17.653  12.9750  0.00  0.00     0.000 O
ATOM    109   O  IDS B   6       5.089  18.800  14.5120  0.00  0.00     0.000 O
ATOM    111  HD  IDS B   6       4.957  18.287  13.8270  0.00  0.00     0.000 HD
BRANCH 104 111
ATOM    111   O  IDS B   6       7.528  20.457  12.4660  0.00  0.00     0.000 O
ATOM    112   S  IDS B   6       7.102  21.603  11.4330  0.00  0.00     0.000 S
ATOM    113   O  IDS B   6       6.815  20.893  10.1970  0.00  0.00     0.000 OA
ATOM    114   O  IDS B   6       5.964  22.337  11.9980  0.00  0.00     0.000 OA
ATOM    115   O  IDS B   6       8.335  22.360  11.4030  0.00  0.00     0.000 OA
ENDBRANCH 104 111
BRANCH 107 116
ATOM    116   C  IDS B   6       9.000  16.800  15.1060  0.00  0.00     0.000 C
ATOM    117   O  IDS B   6      10.088  16.837  14.5910  0.00  0.00     0.000 OA
ATOM    118   O  IDS B   6       8.816  16.266  16.1880  0.00  0.00     0.000 OA
ENDBRANCH 107 116
BRANCH 103 119
ATOM    119  O4  SGN B   7       6.029  17.265  12.0830  0.00  0.00     0.000 O
BRANCH 119 123
ATOM    120  C1  SGN B   7       5.012  14.146   9.4900  0.00  0.00     0.000 C
ATOM    121  C2  SGN B   7       5.321  13.784  10.9540  0.00  0.00     0.000 C
ATOM    122  C3  SGN B   7       5.274  15.036  11.8400  0.00  0.00     0.000 C
ATOM    123  C4  SGN B   7       6.187  16.106  11.2640  0.00  0.00     0.000 C
ATOM    124  C5  SGN B   7       5.803  16.390   9.8030  0.00  0.00     0.000 C
ATOM    125  O5  SGN B   7       5.862  15.185   9.0070  0.00  0.00     0.000 O
ATOM    126   O  SGN B   7       5.662  14.679  13.1710  0.00  0.00     0.000 O
ATOM    128  HD  SGN B   7       5.441  14.420  12.3750  0.00  0.00     0.000 HD
BRANCH 121 130
ATOM    128   N  SGN B   7       5.603  12.360  10.7550  0.00  0.00     0.000 N
ATOM    130  HD  SGN B   7       5.949  12.310  11.5470  0.00  0.00     0.000 HD
ATOM    130   S  SGN B   7       4.760  11.205  11.4950  0.00  0.00     0.000 S
ATOM    131   O  SGN B   7       3.395  11.526  11.2510  0.00  0.00     0.000 OA
ATOM    132   O  SGN B   7       5.282   9.947  11.0990  0.00  0.00     0.000 OA
ATOM    133   O  SGN B   7       5.257  11.394  12.9680  0.00  0.00     0.000 OA
ENDBRANCH 121 130
BRANCH 124 134
ATOM    134   C  SGN B   7       6.722  17.352   9.1100  0.00  0.00     0.000 C
ATOM    135   O  SGN B   7       6.487  17.270   7.6940  0.00  0.00     0.000 O
ATOM    136   S  SGN B   7       7.246  18.314   6.7970  0.00  0.00     0.000 S
ATOM    137   O  SGN B   7       6.938  17.972   5.4290  0.00  0.00     0.000 OA
ATOM    138   O  SGN B   7       8.644  18.145   7.1210  0.00  0.00     0.000 OA
ATOM    139   O  SGN B   7       6.674  19.577   7.2350  0.00  0.00     0.000 OA
ENDBRANCH 124 134
BRANCH 120 140
ATOM    140  O4  IDS B   8       3.852  14.568   8.9730  0.00  0.00     0.000 O
BRANCH 140 144
ATOM    141  C1  IDS B   8       0.791  16.434   8.6420  0.00  0.00     0.000 C
ATOM    142  C2  IDS B   8       1.282  15.945  10.0340  0.00  0.00     0.000 C
ATOM    143  C3  IDS B   8       1.686  14.459  10.0430  0.00  0.00     0.000 C
ATOM    144  C4  IDS B   8       2.514  14.082   8.8160  0.00  0.00     0.000 C
ATOM    145  C5  IDS B   8       1.882  14.676   7.5480  0.00  0.00     0.000 C
ATOM    146  O5  IDS B   8       1.743  16.092   7.6420  0.00  0.00     0.000 O
BRANCH 142 147
ATOM    147   O  IDS B   8       2.479  16.728  10.4400  0.00  0.00     0.000 O
ATOM    148   S  IDS B   8       2.352  17.970  11.4760  0.00  0.00     0.000 S
ATOM    149   O  IDS B   8       0.958  18.344  11.5440  0.00  0.00     0.000 OA
ATOM    150   O  IDS B   8       2.864  17.474  12.7400  0.00  0.00     0.000 OA
ATOM    151   O  IDS B   8       3.168  19.026  10.9060  0.00  0.00     0.000 OA
ENDBRANCH 142 147
BRANCH 145 152
ATOM    152   C  IDS B   8       2.712  14.420   6.3070  0.00  0.00     0.000 C
ATOM    153   O  IDS B   8       2.751  13.292   5.8280  0.00  0.00     0.000 OA
ATOM    154   O  IDS B   8       3.316  15.341   5.7860  0.00  0.00     0.000 OA
ENDBRANCH 145 152
ENDBRANCH 140 144
ENDBRANCH 120 140
ENDBRANCH 119 123
ENDBRANCH 103 119
ENDBRANCH 102 106
ENDBRANCH 82 102
ENDBRANCH 81 85
ENDBRANCH 65 81
ENDBRANCH 64 68
ENDBRANCH 41 64
ENDBRANCH 40 44
ENDBRANCH 24 40
ENDBRANCH 23 27
ENDBRANCH 1 23
TORSDOF 31
ENDMDL
MODEL 99
REMARK VINA RESULT:      -6.5      9.066     13.211
ROOT
ATOM      1  C1  SGN B   1      26.050  16.855  14.4520  0.00  0.00     0.000 C
ATOM      2  C2  SGN B   1      24.900  16.450  13.5160  0.00  0.00     0.000 C
ATOM      3  C3  SGN B   1      24.578  14.959  13.6650  0.00  0.00     0.000 C
ATOM      4  C4  SGN B   1      25.831  14.123  13.4240  0.00  0.00     0.000 C
ATOM      5  C5  SGN B   1      26.969  14.671  14.2820  0.00  0.00     0.000 C
ATOM      6  O5  SGN B   1      27.150  16.073  14.0040  0.00  0.00     0.000 O
ATOM      7   O  SGN B   1      23.543  14.578  12.7660  0.00  0.00     0.000 O
ATOM      9  HD  SGN B   1      24.160  14.848  12.2210  0.00  0.00     0.000 HD
ATOM      9   O  SGN B   1      25.569  12.774  13.7650  0.00  0.00     0.000 O
ATOM     11  HD  SGN B   1      26.185  13.044  13.2200  0.00  0.00     0.000 HD
ENDROOT
BRANCH 2 13
ATOM     11   N  SGN B   1      24.578  17.725  12.8470  0.00  0.00     0.000 N
ATOM     13  HD  SGN B   1      24.603  17.675  13.7120  0.00  0.00     0.000 HD
ATOM     13   S  SGN B   1      23.649  18.844  13.5340  0.00  0.00     0.000 S
ATOM     14   O  SGN B   1      23.269  18.433  14.8290  0.00  0.00     0.000 OA
ATOM     15   O  SGN B   1      24.268  20.115  13.3570  0.00  0.00     0.000 OA
ATOM     16   O  SGN B   1      22.447  18.776  12.5420  0.00  0.00     0.000 OA
ENDBRANCH 2 13
BRANCH 5 17
ATOM     17   C  SGN B   1      28.296  13.992  14.0480  0.00  0.00     0.000 C
ATOM     18   O  SGN B   1      29.347  14.963  13.8710  0.00  0.00     0.000 O
ATOM     19   S  SGN B   1      30.355  14.691  12.6590  0.00  0.00     0.000 S
ATOM     20   O  SGN B   1      31.425  15.649  12.8400  0.00  0.00     0.000 OA
ATOM     21   O  SGN B   1      30.769  13.320  12.8460  0.00  0.00     0.000 OA
ATOM     22   O  SGN B   1      29.575  14.913  11.4620  0.00  0.00     0.000 OA
ENDBRANCH 5 17
BRANCH 1 23
ATOM     23  O4  IDS B   2      26.267  17.314  15.7170  0.00  0.00     0.000 O
BRANCH 23 27
ATOM     24  C1  IDS B   2      26.661  17.380  19.8490  0.00  0.00     0.000 C
ATOM     25  C2  IDS B   2      27.844  17.979  19.0560  0.00  0.00     0.000 C
ATOM     26  C3  IDS B   2      27.474  18.176  17.5890  0.00  0.00     0.000 C
ATOM     27  C4  IDS B   2      26.961  16.910  16.9160  0.00  0.00     0.000 C
ATOM     28  C5  IDS B   2      26.102  16.098  17.9070  0.00  0.00     0.000 C
ATOM     29  O5  IDS B   2      25.631  16.922  18.9630  0.00  0.00     0.000 O
ATOM     30   O  IDS B   2      28.623  18.609  16.8700  0.00  0.00     0.000 O
ATOM     32  HD  IDS B   2      29.168  17.965  16.6770  0.00  0.00     0.000 HD
BRANCH 25 32
ATOM     32   O  IDS B   2      28.270  19.295  19.5920  0.00  0.00     0.000 O
ATOM     33   S  IDS B   2      27.385  20.666  19.3420  0.00  0.00     0.000 S
ATOM     34   O  IDS B   2      28.209  21.770  19.8060  0.00  0.00     0.000 OA
ATOM     35   O  IDS B   2      27.076  20.791  17.9250  0.00  0.00     0.000 OA
ATOM     36   O  IDS B   2      26.199  20.517  20.1540  0.00  0.00     0.000 OA
ENDBRANCH 25 32
BRANCH 28 37
ATOM     37   C  IDS B   2      24.907  15.304  17.3410  0.00  0.00     0.000 C
ATOM     38   O  IDS B   2      25.113  14.114  17.3000  0.00  0.00     0.000 OA
ATOM     39   O  IDS B   2      23.787  15.761  17.0040  0.00  0.00     0.000 OA
ENDBRANCH 28 37
BRANCH 24 40
ATOM     40  O4  SUS B   3      26.814  17.069  21.1530  0.00  0.00     0.000 O
BRANCH 40 44
ATOM     41  C1  SUS B   3      25.129  18.833  24.5580  0.00  0.00     0.000 C
ATOM     42  C2  SUS B   3      24.159  18.351  23.4600  0.00  0.00     0.000 C
ATOM     43  C3  SUS B   3      24.873  17.339  22.5670  0.00  0.00     0.000 C
ATOM     44  C4  SUS B   3      26.148  17.970  22.0310  0.00  0.00     0.000 C
ATOM     45  C5  SUS B   3      27.052  18.314  23.1970  0.00  0.00     0.000 C
ATOM     46  O5  SUS B   3      26.376  19.286  24.0190  0.00  0.00     0.000 O
BRANCH 42 49
ATOM     47   N  SUS B   3      22.931  17.881  24.1240  0.00  0.00     0.000 N
ATOM     49  HD  SUS B   3      22.687  17.067  23.9560  0.00  0.00     0.000 HD
ATOM     49   S  SUS B   3      21.677  18.841  23.8550  0.00  0.00     0.000 S
ATOM     50   O  SUS B   3      21.451  18.957  22.4680  0.00  0.00     0.000 OA
ATOM     51   O  SUS B   3      20.608  17.927  24.5070  0.00  0.00     0.000 OA
ATOM     52   O  SUS B   3      21.832  20.030  24.5930  0.00  0.00     0.000 OA
ENDBRANCH 42 49
BRANCH 43 53
ATOM     53   O  SUS B   3      23.971  17.002  21.4490  0.00  0.00     0.000 O
ATOM     54   S  SUS B   3      23.472  15.440  21.3310  0.00  0.00     0.000 S
ATOM     55   O  SUS B   3      22.540  15.196  22.4230  0.00  0.00     0.000 OA
ATOM     56   O  SUS B   3      22.866  15.363  20.0140  0.00  0.00     0.000 OA
ATOM     57   O  SUS B   3      24.674  14.611  21.4640  0.00  0.00     0.000 OA
ENDBRANCH 43 53
BRANCH 45 58
ATOM     58   C  SUS B   3      28.388  18.857  22.7370  0.00  0.00     0.000 C
ATOM     59   S  SUS B   3      30.842  19.090  23.4500  0.00  0.00     0.000 S
ATOM     60   O  SUS B   3      29.413  18.436  23.6520  0.00  0.00     0.000 O
ATOM     61   O  SUS B   3      30.736  20.418  24.0240  0.00  0.00     0.000 OA
ATOM     62   O  SUS B   3      31.655  18.205  24.2410  0.00  0.00     0.000 OA
ATOM     63   O  SUS B   3      31.084  19.049  22.0520  0.00  0.00     0.000 OA
ENDBRANCH 45 58
BRANCH 41 64
ATOM     64  O4  IDS B   4      25.255  17.958  25.6080  0.00  0.00     0.000 O
BRANCH 64 68
ATOM     65  C1  IDS B   4      25.252  17.600  29.2340  0.00  0.00     0.000 C
ATOM     66  C2  IDS B   4      24.674  18.863  28.5820  0.00  0.00     0.000 C
ATOM     67  C3  IDS B   4      25.550  19.466  27.4970  0.00  0.00     0.000 C
ATOM     68  C4  IDS B   4      26.192  18.419  26.6070  0.00  0.00     0.000 C
ATOM     69  C5  IDS B   4      26.730  17.296  27.5040  0.00  0.00     0.000 C
ATOM     70  O5  IDS B   4      25.643  16.699  28.2150  0.00  0.00     0.000 O
ATOM     71   O  IDS B   4      26.552  20.225  28.1410  0.00  0.00     0.000 O
ATOM     73  HD  IDS B   4      25.797  19.805  28.0850  0.00  0.00     0.000 HD
BRANCH 66 73
ATOM     73   O  IDS B   4      23.411  18.516  27.9170  0.00  0.00     0.000 O
ATOM     74   S  IDS B   4      22.070  19.293  28.3820  0.00  0.00     0.000 S
ATOM     75   O  IDS B   4      21.945  19.077  29.8080  0.00  0.00     0.000 OA
ATOM     76   O  IDS B   4      21.058  18.634  27.5970  0.00  0.00     0.000 OA
ATOM     77   O  IDS B   4      22.286  20.677  28.0320  0.00  0.00     0.000 OA
ENDBRANCH 66 73
BRANCH 69 78
ATOM     78   C  IDS B   4      27.597  16.274  26.7800  0.00  0.00     0.000 C
ATOM     79   O  IDS B   4      28.819  16.416  26.8000  0.00  0.00     0.000 OA
ATOM     80   O  IDS B   4      27.050  15.272  26.2840  0.00  0.00     0.000 OA
ENDBRANCH 69 78
BRANCH 65 81
ATOM     81  O4  SGN B   5      26.206  17.954  30.1390  0.00  0.00     0.000 O
BRANCH 81 85
ATOM     82  C1  SGN B   5      28.762  16.299  33.0320  0.00  0.00     0.000 C
ATOM     83  C2  SGN B   5      29.381  16.642  31.6690  0.00  0.00     0.000 C
ATOM     84  C3  SGN B   5      28.472  17.632  30.9270  0.00  0.00     0.000 C
ATOM     85  C4  SGN B   5      27.075  17.045  30.8180  0.00  0.00     0.000 C
ATOM     86  C5  SGN B   5      26.560  16.770  32.2290  0.00  0.00     0.000 C
ATOM     87  O5  SGN B   5      27.440  15.823  32.8660  0.00  0.00     0.000 O
ATOM     88   O  SGN B   5      29.005  17.907  29.6500  0.00  0.00     0.000 O
ATOM     90  HD  SGN B   5      29.063  18.426  30.3410  0.00  0.00     0.000 HD
BRANCH 83 92
ATOM     90   N  SGN B   5      30.448  15.677  31.9950  0.00  0.00     0.000 N
ATOM     92  HD  SGN B   5      30.229  14.876  31.7490  0.00  0.00     0.000 HD
ATOM     92   S  SGN B   5      31.959  16.092  31.6780  0.00  0.00     0.000 S
ATOM     93   O  SGN B   5      32.732  14.961  32.0960  0.00  0.00     0.000 OA
ATOM     94   O  SGN B   5      31.970  16.499  30.3150  0.00  0.00     0.000 OA
ATOM     95   O  SGN B   5      32.203  17.325  32.5200  0.00  0.00     0.000 OA
ENDBRANCH 83 92
BRANCH 86 96
ATOM     96   C  SGN B   5      25.162  16.189  32.2770  0.00  0.00     0.000 C
ATOM     97   O  SGN B   5      24.547  16.465  33.5370  0.00  0.00     0.000 O
ATOM     98   S  SGN B   5      23.082  17.117  33.4810  0.00  0.00     0.000 S
ATOM     99   O  SGN B   5      22.665  17.080  34.8620  0.00  0.00     0.000 OA
ATOM    100   O  SGN B   5      23.217  18.420  32.9380  0.00  0.00     0.000 OA
ATOM    101   O  SGN B   5      22.335  16.239  32.6410  0.00  0.00     0.000 OA
ENDBRANCH 86 96
BRANCH 82 102
ATOM    102  O4  IDS B   6      28.782  17.353  33.8970  0.00  0.00     0.000 O
BRANCH 102 106
ATOM    103  C1  IDS B   6      29.299  17.854  37.4660  0.00  0.00     0.000 C
ATOM    104  C2  IDS B   6      29.576  16.490  36.8160  0.00  0.00     0.000 C
ATOM    105  C3  IDS B   6      28.486  15.985  35.8900  0.00  0.00     0.000 C
ATOM    106  C4  IDS B   6      27.902  17.083  35.0190  0.00  0.00     0.000 C
ATOM    107  C5  IDS B   6      27.684  18.347  35.8550  0.00  0.00     0.000 C
ATOM    108  O5  IDS B   6      28.891  18.786  36.4830  0.00  0.00     0.000 O
ATOM    109   O  IDS B   6      27.477  15.383  36.6840  0.00  0.00     0.000 O
ATOM    111  HD  IDS B   6      27.580  15.746  37.4630  0.00  0.00     0.000 HD
BRANCH 104 111
ATOM    111   O  IDS B   6      30.780  16.594  35.9770  0.00  0.00     0.000 O
ATOM    112   S  IDS B   6      31.935  15.503  36.1780  0.00  0.00     0.000 S
ATOM    113   O  IDS B   6      32.315  15.626  37.5760  0.00  0.00     0.000 OA
ATOM    114   O  IDS B   6      31.402  14.189  35.8010  0.00  0.00     0.000 OA
ATOM    115   O  IDS B   6      32.916  16.029  35.2530  0.00  0.00     0.000 OA
ENDBRANCH 104 111
BRANCH 107 116
ATOM    116   C  IDS B   6      27.133  19.453  34.9640  0.00  0.00     0.000 C
ATOM    117   O  IDS B   6      26.023  19.291  34.5240  0.00  0.00     0.000 OA
ATOM    118   O  IDS B   6      27.792  20.447  34.7050  0.00  0.00     0.000 OA
ENDBRANCH 107 116
BRANCH 103 119
ATOM    119  O4  SGN B   7      28.505  17.550  38.5250  0.00  0.00     0.000 O
BRANCH 119 123
ATOM    120  C1  SGN B   7      27.996  18.944  42.4350  0.00  0.00     0.000 C
ATOM    121  C2  SGN B   7      27.381  19.777  41.2950  0.00  0.00     0.000 C
ATOM    122  C3  SGN B   7      27.301  18.949  40.0060  0.00  0.00     0.000 C
ATOM    123  C4  SGN B   7      28.669  18.375  39.6790  0.00  0.00     0.000 C
ATOM    124  C5  SGN B   7      29.198  17.569  40.8770  0.00  0.00     0.000 C
ATOM    125  O5  SGN B   7      29.257  18.388  42.0670  0.00  0.00     0.000 O
ATOM    126   O  SGN B   7      26.818  19.783  38.9460  0.00  0.00     0.000 O
ATOM    128  HD  SGN B   7      26.962  19.680  39.7940  0.00  0.00     0.000 HD
BRANCH 121 130
ATOM    128   N  SGN B   7      27.241  21.031  42.0390  0.00  0.00     0.000 N
ATOM    130  HD  SGN B   7      27.118  21.465  41.2990  0.00  0.00     0.000 HD
ATOM    130   S  SGN B   7      25.819  21.764  42.2280  0.00  0.00     0.000 S
ATOM    131   O  SGN B   7      24.939  20.752  42.7020  0.00  0.00     0.000 OA
ATOM    132   O  SGN B   7      26.024  22.948  42.9820  0.00  0.00     0.000 OA
ATOM    133   O  SGN B   7      25.565  22.266  40.7660  0.00  0.00     0.000 OA
ENDBRANCH 121 130
BRANCH 124 134
ATOM    134   C  SGN B   7      30.596  17.057  40.6950  0.00  0.00     0.000 C
ATOM    135   O  SGN B   7      31.469  17.785  41.5750  0.00  0.00     0.000 O
ATOM    136   S  SGN B   7      32.959  17.293  41.6470  0.00  0.00     0.000 S
ATOM    137   O  SGN B   7      33.655  18.228  42.4990  0.00  0.00     0.000 OA
ATOM    138   O  SGN B   7      33.432  17.315  40.2820  0.00  0.00     0.000 OA
ATOM    139   O  SGN B   7      32.822  15.962  42.2170  0.00  0.00     0.000 OA
ENDBRANCH 124 134
BRANCH 120 140
ATOM    140  O4  IDS B   8      27.471  17.880  43.0530  0.00  0.00     0.000 O
BRANCH 140 144
ATOM    141  C1  IDS B   8      25.732  14.749  43.4220  0.00  0.00     0.000 C
ATOM    142  C2  IDS B   8      25.264  15.806  42.3810  0.00  0.00     0.000 C
ATOM    143  C3  IDS B   8      25.144  17.223  42.9720  0.00  0.00     0.000 C
ATOM    144  C4  IDS B   8      26.332  17.572  43.8670  0.00  0.00     0.000 C
ATOM    145  C5  IDS B   8      26.654  16.398  44.8020  0.00  0.00     0.000 C
ATOM    146  O5  IDS B   8      26.913  15.200  44.0740  0.00  0.00     0.000 O
BRANCH 142 147
ATOM    147   O  IDS B   8      26.247  15.875  41.2680  0.00  0.00     0.000 O
ATOM    148   S  IDS B   8      25.983  15.096  39.8700  0.00  0.00     0.000 S
ATOM    149   O  IDS B   8      24.942  14.120  40.1020  0.00  0.00     0.000 OA
ATOM    150   O  IDS B   8      25.589  16.123  38.9230  0.00  0.00     0.000 OA
ATOM    151   O  IDS B   8      27.248  14.470  39.5370  0.00  0.00     0.000 OA
ENDBRANCH 142 147
BRANCH 145 152
ATOM    152   C  IDS B   8      27.887  16.646  45.6480  0.00  0.00     0.000 C
ATOM    153   O  IDS B   8      28.675  15.729  45.8520  0.00  0.00     0.000 OA
ATOM    154   O  IDS B   8      28.093  17.759  46.0990  0.00  0.00     0.000 OA
ENDBRANCH 145 152
ENDBRANCH 140 144
ENDBRANCH 120 140
ENDBRANCH 119 123
ENDBRANCH 103 119
ENDBRANCH 102 106
ENDBRANCH 82 102
ENDBRANCH 81 85
ENDBRANCH 65 81
ENDBRANCH 64 68
ENDBRANCH 41 64
ENDBRANCH 40 44
ENDBRANCH 24 40
ENDBRANCH 23 27
ENDBRANCH 1 23
TORSDOF 31
ENDMDL
MODEL 100
REMARK VINA RESULT:      -6.5      8.139     19.919
ROOT
ATOM      1  C1  SGN B   1      14.770  18.898  22.2390  0.00  0.00     0.000 C
ATOM      2  C2  SGN B   1      13.568  19.855  22.2670  0.00  0.00     0.000 C
ATOM      3  C3  SGN B   1      13.262  20.301  23.7010  0.00  0.00     0.000 C
ATOM      4  C4  SGN B   1      13.044  19.084  24.5950  0.00  0.00     0.000 C
ATOM      5  C5  SGN B   1      14.208  18.113  24.4080  0.00  0.00     0.000 C
ATOM      6  O5  SGN B   1      14.342  17.785  23.0120  0.00  0.00     0.000 O
ATOM      7   O  SGN B   1      12.121  21.150  23.7290  0.00  0.00     0.000 O
ATOM      9  HD  SGN B   1      11.788  20.418  23.4090  0.00  0.00     0.000 HD
ATOM      9   O  SGN B   1      12.967  19.500  25.9460  0.00  0.00     0.000 O
ATOM     11  HD  SGN B   1      12.634  18.768  25.6260  0.00  0.00     0.000 HD
ENDROOT
BRANCH 2 13
ATOM     11   N  SGN B   1      13.293  19.863  20.8170  0.00  0.00     0.000 N
ATOM     13  HD  SGN B   1      14.053  20.144  21.1230  0.00  0.00     0.000 HD
ATOM     13   S  SGN B   1      13.981  20.920  19.8180  0.00  0.00     0.000 S
ATOM     14   O  SGN B   1      14.877  21.747  20.5280  0.00  0.00     0.000 OA
ATOM     15   O  SGN B   1      14.439  20.218  18.6660  0.00  0.00     0.000 OA
ATOM     16   O  SGN B   1      12.697  21.701  19.4010  0.00  0.00     0.000 OA
ENDBRANCH 2 13
BRANCH 5 17
ATOM     17   C  SGN B   1      14.051  16.815  25.1610  0.00  0.00     0.000 C
ATOM     18   O  SGN B   1      12.659  16.485  25.3340  0.00  0.00     0.000 O
ATOM     19   S  SGN B   1      12.231  15.993  26.7950  0.00  0.00     0.000 S
ATOM     20   O  SGN B   1      10.875  15.510  26.6450  0.00  0.00     0.000 OA
ATOM     21   O  SGN B   1      13.184  14.955  27.1100  0.00  0.00     0.000 OA
ATOM     22   O  SGN B   1      12.339  17.166  27.6350  0.00  0.00     0.000 OA
ENDBRANCH 5 17
BRANCH 1 23
ATOM     23  O4  IDS B   2      16.129  18.917  22.1280  0.00  0.00     0.000 O
BRANCH 23 27
ATOM     24  C1  IDS B   2      20.204  19.499  22.6650  0.00  0.00     0.000 C
ATOM     25  C2  IDS B   2      19.334  19.664  23.9310  0.00  0.00     0.000 C
ATOM     26  C3  IDS B   2      17.919  19.143  23.6920  0.00  0.00     0.000 C
ATOM     27  C4  IDS B   2      17.237  19.771  22.4840  0.00  0.00     0.000 C
ATOM     28  C5  IDS B   2      18.263  19.990  21.3540  0.00  0.00     0.000 C
ATOM     29  O5  IDS B   2      19.398  19.155  21.5310  0.00  0.00     0.000 O
ATOM     30   O  IDS B   2      17.118  19.426  24.8330  0.00  0.00     0.000 O
ATOM     32  HD  IDS B   2      16.843  20.246  24.8630  0.00  0.00     0.000 HD
BRANCH 25 32
ATOM     32   O  IDS B   2      19.891  18.931  25.0940  0.00  0.00     0.000 O
ATOM     33   S  IDS B   2      20.240  19.690  26.5180  0.00  0.00     0.000 S
ATOM     34   O  IDS B   2      20.964  18.722  27.3260  0.00  0.00     0.000 OA
ATOM     35   O  IDS B   2      21.048  20.871  26.2510  0.00  0.00     0.000 OA
ATOM     36   O  IDS B   2      18.963  20.018  27.1080  0.00  0.00     0.000 OA
ENDBRANCH 25 32
BRANCH 28 37
ATOM     37   C  IDS B   2      17.774  19.842  19.8990  0.00  0.00     0.000 C
ATOM     38   O  IDS B   2      17.663  20.905  19.3330  0.00  0.00     0.000 OA
ATOM     39   O  IDS B   2      17.560  18.772  19.2780  0.00  0.00     0.000 OA
ENDBRANCH 28 37
BRANCH 24 40
ATOM     40  O4  SUS B   3      21.471  19.963  22.6550  0.00  0.00     0.000 O
BRANCH 40 44
ATOM     41  C1  SUS B   3      24.813  18.668  20.4870  0.00  0.00     0.000 C
ATOM     42  C2  SUS B   3      23.743  19.470  19.7200  0.00  0.00     0.000 C
ATOM     43  C3  SUS B   3      22.887  20.248  20.7170  0.00  0.00     0.000 C
ATOM     44  C4  SUS B   3      22.317  19.276  21.7390  0.00  0.00     0.000 C
ATOM     45  C5  SUS B   3      23.462  18.623  22.4850  0.00  0.00     0.000 C
ATOM     46  O5  SUS B   3      24.249  17.874  21.5370  0.00  0.00     0.000 O
BRANCH 42 49
ATOM     47   N  SUS B   3      24.355  18.869  18.5230  0.00  0.00     0.000 N
ATOM     49  HD  SUS B   3      25.197  18.673  18.5760  0.00  0.00     0.000 HD
ATOM     49   S  SUS B   3      24.134  19.754  17.2060  0.00  0.00     0.000 S
ATOM     50   O  SUS B   3      24.654  21.049  17.4050  0.00  0.00     0.000 OA
ATOM     51   O  SUS B   3      25.062  18.930  16.2770  0.00  0.00     0.000 OA
ATOM     52   O  SUS B   3      22.792  19.646  16.7910  0.00  0.00     0.000 OA
ENDBRANCH 42 49
BRANCH 43 53
ATOM     53   O  SUS B   3      21.789  20.891  19.9690  0.00  0.00     0.000 O
ATOM     54   S  SUS B   3      21.719  22.533  20.0050  0.00  0.00     0.000 S
ATOM     55   O  SUS B   3      22.828  23.034  19.2060  0.00  0.00     0.000 OA
ATOM     56   O  SUS B   3      20.412  22.841  19.4520  0.00  0.00     0.000 OA
ATOM     57   O  SUS B   3      21.858  22.923  21.4110  0.00  0.00     0.000 OA
ENDBRANCH 43 53
BRANCH 45 58
ATOM     58   C  SUS B   3      22.972  17.714  23.5910  0.00  0.00     0.000 C
ATOM     59   S  SUS B   3      23.423  15.449  24.7110  0.00  0.00     0.000 S
ATOM     60   O  SUS B   3      23.887  16.617  23.7470  0.00  0.00     0.000 O
ATOM     61   O  SUS B   3      22.472  14.674  23.9380  0.00  0.00     0.000 OA
ATOM     62   O  SUS B   3      24.668  14.759  24.9150  0.00  0.00     0.000 OA
ATOM     63   O  SUS B   3      22.891  16.094  25.8590  0.00  0.00     0.000 OA
ENDBRANCH 45 58
BRANCH 41 64
ATOM     64  O4  IDS B   4      25.898  19.418  20.8710  0.00  0.00     0.000 O
BRANCH 64 68
ATOM     65  C1  IDS B   4      29.314  20.343  21.7340  0.00  0.00     0.000 C
ATOM     66  C2  IDS B   4      28.959  19.958  20.2920  0.00  0.00     0.000 C
ATOM     67  C3  IDS B   4      28.116  18.701  20.1680  0.00  0.00     0.000 C
ATOM     68  C4  IDS B   4      27.037  18.606  21.2310  0.00  0.00     0.000 C
ATOM     69  C5  IDS B   4      27.661  18.992  22.5790  0.00  0.00     0.000 C
ATOM     70  O5  IDS B   4      28.131  20.340  22.5120  0.00  0.00     0.000 O
ATOM     71   O  IDS B   4      28.990  17.597  20.2750  0.00  0.00     0.000 O
ATOM     73  HD  IDS B   4      28.783  18.427  20.1450  0.00  0.00     0.000 HD
BRANCH 66 73
ATOM     73   O  IDS B   4      28.149  21.033  19.7020  0.00  0.00     0.000 O
ATOM     74   S  IDS B   4      28.710  21.761  18.3710  0.00  0.00     0.000 S
ATOM     75   O  IDS B   4      30.024  22.270  18.7050  0.00  0.00     0.000 OA
ATOM     76   O  IDS B   4      27.721  22.787  18.1550  0.00  0.00     0.000 OA
ATOM     77   O  IDS B   4      28.736  20.738  17.3530  0.00  0.00     0.000 OA
ENDBRANCH 66 73
BRANCH 69 78
ATOM     78   C  IDS B   4      26.764  18.736  23.7830  0.00  0.00     0.000 C
ATOM     79   O  IDS B   4      26.071  19.658  24.2100  0.00  0.00     0.000 OA
ATOM     80   O  IDS B   4      26.683  17.577  24.2290  0.00  0.00     0.000 OA
ENDBRANCH 69 78
BRANCH 65 81
ATOM     81  O4  SGN B   5      30.338  19.559  22.1730  0.00  0.00     0.000 O
BRANCH 81 85
ATOM     82  C1  SGN B   5      33.486  19.629  24.9530  0.00  0.00     0.000 C
ATOM     83  C2  SGN B   5      32.310  18.687  25.2530  0.00  0.00     0.000 C
ATOM     84  C3  SGN B   5      31.512  18.436  23.9670  0.00  0.00     0.000 C
ATOM     85  C4  SGN B   5      31.076  19.767  23.3800  0.00  0.00     0.000 C
ATOM     86  C5  SGN B   5      32.324  20.601  23.1030  0.00  0.00     0.000 C
ATOM     87  O5  SGN B   5      33.019  20.819  24.3460  0.00  0.00     0.000 O
ATOM     88   O  SGN B   5      30.397  17.617  24.2460  0.00  0.00     0.000 O
ATOM     90  HD  SGN B   5      31.136  17.352  23.8810  0.00  0.00     0.000 HD
BRANCH 83 92
ATOM     90   N  SGN B   5      33.282  18.275  26.2840  0.00  0.00     0.000 N
ATOM     92  HD  SGN B   5      33.783  18.940  26.5230  0.00  0.00     0.000 HD
ATOM     92   S  SGN B   5      32.762  17.355  27.4830  0.00  0.00     0.000 S
ATOM     93   O  SGN B   5      33.921  17.143  28.2960  0.00  0.00     0.000 OA
ATOM     94   O  SGN B   5      31.627  18.026  28.0190  0.00  0.00     0.000 OA
ATOM     95   O  SGN B   5      32.265  16.093  26.8120  0.00  0.00     0.000 OA
ENDBRANCH 83 92
BRANCH 86 96
ATOM     96   C  SGN B   5      32.041  21.961  22.5000  0.00  0.00     0.000 C
ATOM     97   O  SGN B   5      31.519  22.851  23.4900  0.00  0.00     0.000 O
ATOM     98   S  SGN B   5      32.241  24.278  23.6070  0.00  0.00     0.000 S
ATOM     99   O  SGN B   5      31.380  24.995  24.5170  0.00  0.00     0.000 OA
ATOM    100   O  SGN B   5      33.555  24.052  24.0910  0.00  0.00     0.000 OA
ATOM    101   O  SGN B   5      32.218  24.797  22.2790  0.00  0.00     0.000 OA
ENDBRANCH 86 96
BRANCH 82 102
ATOM    102  O4  IDS B   6      34.441  19.044  24.1760  0.00  0.00     0.000 O
BRANCH 102 106
ATOM    103  C1  IDS B   6      37.820  17.943  23.3820  0.00  0.00     0.000 C
ATOM    104  C2  IDS B   6      37.230  17.720  24.7830  0.00  0.00     0.000 C
ATOM    105  C3  IDS B   6      36.547  18.929  25.3930  0.00  0.00     0.000 C
ATOM    106  C4  IDS B   6      35.716  19.703  24.3860  0.00  0.00     0.000 C
ATOM    107  C5  IDS B   6      36.486  19.832  23.0690  0.00  0.00     0.000 C
ATOM    108  O5  IDS B   6      36.860  18.557  22.5440  0.00  0.00     0.000 O
ATOM    109   O  IDS B   6      37.546  19.757  25.9650  0.00  0.00     0.000 O
ATOM    111  HD  IDS B   6      38.268  19.538  25.5390  0.00  0.00     0.000 HD
BRANCH 104 111
ATOM    111   O  IDS B   6      36.188  16.684  24.7050  0.00  0.00     0.000 O
ATOM    112   S  IDS B   6      36.421  15.319  25.5080  0.00  0.00     0.000 S
ATOM    113   O  IDS B   6      37.664  14.787  24.9710  0.00  0.00     0.000 OA
ATOM    114   O  IDS B   6      36.454  15.624  26.9430  0.00  0.00     0.000 OA
ATOM    115   O  IDS B   6      35.242  14.595  25.0860  0.00  0.00     0.000 OA
ENDBRANCH 104 111
BRANCH 107 116
ATOM    116   C  IDS B   6      35.629  20.578  22.0550  0.00  0.00     0.000 C
ATOM    117   O  IDS B   6      35.146  19.923  21.1660  0.00  0.00     0.000 OA
ATOM    118   O  IDS B   6      35.452  21.783  22.1370  0.00  0.00     0.000 OA
ENDBRANCH 107 116
BRANCH 103 119
ATOM    119  O4  SGN B   7      39.020  18.528  23.6290  0.00  0.00     0.000 O
BRANCH 119 123
ATOM    120  C1  SGN B   7      42.793  18.593  21.8250  0.00  0.00     0.000 C
ATOM    121  C2  SGN B   7      41.685  19.456  21.1930  0.00  0.00     0.000 C
ATOM    122  C3  SGN B   7      40.519  19.639  22.1730  0.00  0.00     0.000 C
ATOM    123  C4  SGN B   7      40.040  18.282  22.6600  0.00  0.00     0.000 C
ATOM    124  C5  SGN B   7      41.216  17.498  23.2660  0.00  0.00     0.000 C
ATOM    125  O5  SGN B   7      42.288  17.349  22.3080  0.00  0.00     0.000 O
ATOM    126   O  SGN B   7      39.469  20.360  21.5200  0.00  0.00     0.000 O
ATOM    128  HD  SGN B   7      40.289  20.081  21.5060  0.00  0.00     0.000 HD
BRANCH 121 130
ATOM    128   N  SGN B   7      42.220  19.623  19.8390  0.00  0.00     0.000 N
ATOM    130  HD  SGN B   7      41.475  19.981  19.5810  0.00  0.00     0.000 HD
ATOM    130   S  SGN B   7      42.641  21.062  19.2530  0.00  0.00     0.000 S
ATOM    131   O  SGN B   7      43.487  21.635  20.2440  0.00  0.00     0.000 OA
ATOM    132   O  SGN B   7      43.110  20.884  17.9260  0.00  0.00     0.000 OA
ATOM    133   O  SGN B   7      41.231  21.723  19.0880  0.00  0.00     0.000 OA
ENDBRANCH 121 130
BRANCH 124 134
ATOM    134   C  SGN B   7      40.867  16.097  23.6710  0.00  0.00     0.000 C
ATOM    135   O  SGN B   7      42.055  15.453  24.1610  0.00  0.00     0.000 O
ATOM    136   S  SGN B   7      41.871  14.021  24.7810  0.00  0.00     0.000 S
ATOM    137   O  SGN B   7      43.195  13.543  25.1010  0.00  0.00     0.000 OA
ATOM    138   O  SGN B   7      41.224  13.243  23.7500  0.00  0.00     0.000 OA
ATOM    139   O  SGN B   7      41.040  14.289  25.9450  0.00  0.00     0.000 OA
ENDBRANCH 124 134
BRANCH 120 140
ATOM    140  O4  IDS B   8      43.595  18.905  22.8490  0.00  0.00     0.000 O
BRANCH 140 144
ATOM    141  C1  IDS B   8      44.551  20.266  26.0420  0.00  0.00     0.000 C
ATOM    142  C2  IDS B   8      43.513  20.993  25.1420  0.00  0.00     0.000 C
ATOM    143  C3  IDS B   8      43.979  21.143  23.6820  0.00  0.00     0.000 C
ATOM    144  C4  IDS B   8      44.619  19.861  23.1500  0.00  0.00     0.000 C
ATOM    145  C5  IDS B   8      45.591  19.284  24.1900  0.00  0.00     0.000 C
ATOM    146  O5  IDS B   8      44.945  19.040  25.4370  0.00  0.00     0.000 O
BRANCH 142 147
ATOM    147   O  IDS B   8      42.245  20.217  25.1210  0.00  0.00     0.000 O
ATOM    148   S  IDS B   8      40.996  20.629  26.0700  0.00  0.00     0.000 S
ATOM    149   O  IDS B   8      41.498  21.519  27.0930  0.00  0.00     0.000 OA
ATOM    150   O  IDS B   8      40.036  21.270  25.1900  0.00  0.00     0.000 OA
ATOM    151   O  IDS B   8      40.512  19.381  26.6280  0.00  0.00     0.000 OA
ENDBRANCH 142 147
BRANCH 145 152
ATOM    152   C  IDS B   8      46.184  17.957  23.7610  0.00  0.00     0.000 C
ATOM    153   O  IDS B   8      46.798  17.884  22.7030  0.00  0.00     0.000 OA
ATOM    154   O  IDS B   8      46.061  16.982  24.4810  0.00  0.00     0.000 OA
ENDBRANCH 145 152
ENDBRANCH 140 144
ENDBRANCH 120 140
ENDBRANCH 119 123
ENDBRANCH 103 119
ENDBRANCH 102 106
ENDBRANCH 82 102
ENDBRANCH 81 85
ENDBRANCH 65 81
ENDBRANCH 64 68
ENDBRANCH 41 64
ENDBRANCH 40 44
ENDBRANCH 24 40
ENDBRANCH 23 27
ENDBRANCH 1 23
TORSDOF 31
ENDMDL
