MODEL 1
REMARK VINA RESULT:      -6.0      0.000      0.000
ROOT
ATOM      1  C1  Z9H D   1       7.583  25.734   7.5230  0.00  0.00     0.000 C
ATOM      2  C2  Z9H D   1       6.219  26.158   8.1200  0.00  0.00     0.000 C
ATOM      3  C3  Z9H D   1       5.466  24.805   7.9360  0.00  0.00     0.000 C
ATOM      4  C4  Z9H D   1       5.553  24.171   6.4860  0.00  0.00     0.000 C
ATOM      5  C5  Z9H D   1       6.908  24.031   5.6840  0.00  0.00     0.000 C
ATOM      6  O5  Z9H D   1       7.658  25.166   6.1860  0.00  0.00     0.000 O
ATOM      7   O  Z9H D   1       4.104  24.899   8.3560  0.00  0.00     0.000 O
ATOM      8   C  Z9H D   1       3.832  24.405   9.6780  0.00  0.00     0.000 C
ATOM      9   O  Z9H D   1       4.994  22.858   6.6020  0.00  0.00     0.000 O
ATOM     10   C  Z9H D   1       3.634  22.727   6.1770  0.00  0.00     0.000 C
ENDROOT
BRANCH 2 11
ATOM     11   O  Z9H D   1       6.510  26.231   9.4910  0.00  0.00     0.000 O
ATOM     12   O  Z9H D   1       6.482  27.827  10.4970  0.00  0.00     0.000 OA
ATOM     13   S  Z9H D   1       6.143  27.731   9.1170  0.00  0.00     0.000 S
ATOM     14   O  Z9H D   1       4.733  27.799   8.8600  0.00  0.00     0.000 OA
ATOM     15   O  Z9H D   1       7.167  28.344   8.3020  0.00  0.00     0.000 O
ENDBRANCH 2 11
BRANCH 5 16
ATOM     16   C  Z9H D   1       6.734  23.761   4.0410  0.00  0.00     0.000 C
ATOM     17   S  Z9H D   1       5.396  23.476   2.5690  0.00  0.00     0.000 S
ATOM     18   O  Z9H D   1       5.510  24.432   3.8650  0.00  0.00     0.000 O
ATOM     19   O  Z9H D   1       5.229  22.081   2.8620  0.00  0.00     0.000 O
ATOM     20   O  Z9H D   1       6.235  23.958   1.5280  0.00  0.00     0.000 OA
ATOM     21   O  Z9H D   1       4.139  24.157   2.4690  0.00  0.00     0.000 OA
ENDBRANCH 5 16
BRANCH 1 22
ATOM     22  O4  GU1 D   2       8.302  24.704   8.2930  0.00  0.00     0.000 O
BRANCH 22 26
ATOM     23  C1  GU1 D   2      11.974  23.440   9.6670  0.00  0.00     0.000 C
ATOM     24  C2  GU1 D   2      11.753  24.943   9.7230  0.00  0.00     0.000 C
ATOM     25  C3  GU1 D   2      10.289  25.237   9.5700  0.00  0.00     0.000 C
ATOM     26  C4  GU1 D   2       9.728  24.571   8.3220  0.00  0.00     0.000 C
ATOM     27  C5  GU1 D   2      10.094  23.084   8.3120  0.00  0.00     0.000 C
ATOM     28  O5  GU1 D   2      11.504  22.917   8.4300  0.00  0.00     0.000 O
ATOM     29   O  GU1 D   2      12.192  25.500  10.9570  0.00  0.00     0.000 O
ATOM     30   C  GU1 D   2      13.498  26.056  10.9050  0.00  0.00     0.000 C
ATOM     31   C  GU1 D   2       9.666  27.307  10.6280  0.00  0.00     0.000 C
ATOM     32   O  GU1 D   2      10.122  26.653   9.4470  0.00  0.00     0.000 O
BRANCH 27 33
ATOM     33   C  GU1 D   2       9.655  22.421   7.0280  0.00  0.00     0.000 C
ATOM     34   O  GU1 D   2       8.813  21.549   7.0870  0.00  0.00     0.000 OA
ATOM     35   O  GU1 D   2      10.135  22.762   5.9580  0.00  0.00     0.000 O
ENDBRANCH 27 33
BRANCH 23 36
ATOM     36  O4  GU6 D   3      13.309  22.911   9.5440  0.00  0.00     0.000 O
BRANCH 36 40
ATOM     37  C1  GU6 D   3      17.270  22.105  10.1450  0.00  0.00     0.000 C
ATOM     38  C2  GU6 D   3      16.769  21.741   8.7530  0.00  0.00     0.000 C
ATOM     39  C3  GU6 D   3      15.394  22.320   8.5440  0.00  0.00     0.000 C
ATOM     40  C4  GU6 D   3      14.713  22.897   9.7080  0.00  0.00     0.000 C
ATOM     41  C5  GU6 D   3      15.020  22.032  10.9750  0.00  0.00     0.000 C
ATOM     42  O5  GU6 D   3      16.370  21.571  11.1030  0.00  0.00     0.000 O
BRANCH 38 43
ATOM     43   O  GU6 D   3      17.653  22.229   7.7620  0.00  0.00     0.000 O
ATOM     44   S  GU6 D   3      18.588  21.176   7.1800  0.00  0.00     0.000 S
ATOM     45   O  GU6 D   3      19.726  21.000   8.1000  0.00  0.00     0.000 OA
ATOM     46   O  GU6 D   3      17.851  19.905   7.0640  0.00  0.00     0.000 O
ATOM     47   O  GU6 D   3      19.033  21.619   5.8630  0.00  0.00     0.000 OA
ENDBRANCH 38 43
BRANCH 39 48
ATOM     48   O  GU6 D   3      14.877  22.511   7.2410  0.00  0.00     0.000 O
ATOM     49   S  GU6 D   3      14.214  21.513   6.2920  0.00  0.00     0.000 S
ATOM     50   O  GU6 D   3      13.072  20.870   6.9520  0.00  0.00     0.000 OA
ATOM     51   O  GU6 D   3      13.774  22.359   5.1740  0.00  0.00     0.000 OA
ATOM     52   O  GU6 D   3      15.211  20.494   5.8960  0.00  0.00     0.000 O
ENDBRANCH 39 48
BRANCH 41 53
ATOM     53   C  GU6 D   3      14.097  21.627  12.0920  0.00  0.00     0.000 C
ATOM     54   O  GU6 D   3      13.914  22.898  12.6590  0.00  0.00     0.000 O
ATOM     55   S  GU6 D   3      13.111  23.064  13.9560  0.00  0.00     0.000 S
ATOM     56   O  GU6 D   3      13.882  22.390  15.0260  0.00  0.00     0.000 O
ATOM     57   O  GU6 D   3      12.972  24.499  14.2410  0.00  0.00     0.000 OA
ATOM     58   O  GU6 D   3      11.801  22.406  13.7480  0.00  0.00     0.000 OA
ENDBRANCH 41 53
BRANCH 37 59
ATOM     59  O4  Z9K D   4      17.617  23.437  10.5780  0.00  0.00     0.000 O
BRANCH 59 63
ATOM     60  C1  Z9K D   4      21.041  24.174   8.7940  0.00  0.00     0.000 C
ATOM     61  C2  Z9K D   4      21.526  23.529  10.1210  0.00  0.00     0.000 C
ATOM     62  C3  Z9K D   4      20.143  23.067  10.7550  0.00  0.00     0.000 C
ATOM     63  C4  Z9K D   4      18.922  24.064  10.7450  0.00  0.00     0.000 C
ATOM     64  C5  Z9K D   4      18.924  25.122   9.6310  0.00  0.00     0.000 C
ATOM     65  O5  Z9K D   4      19.582  24.434   8.5350  0.00  0.00     0.000 O
ATOM     66   O  Z9K D   4      20.259  22.639  12.1240  0.00  0.00     0.000 O
ATOM     67   C  Z9K D   4      20.629  21.279  12.2830  0.00  0.00     0.000 C
BRANCH 61 68
ATOM     68   O  Z9K D   4      22.214  22.357   9.7820  0.00  0.00     0.000 O
ATOM     69   O  Z9K D   4      23.212  23.444  11.8730  0.00  0.00     0.000 OA
ATOM     70   S  Z9K D   4      23.383  23.246  10.4650  0.00  0.00     0.000 S
ATOM     71   O  Z9K D   4      23.824  24.235   9.5300  0.00  0.00     0.000 OA
ATOM     72   O  Z9K D   4      24.050  22.012  10.2020  0.00  0.00     0.000 OA
ENDBRANCH 61 68
BRANCH 64 73
ATOM     73   C  Z9K D   4      17.505  25.686   9.4080  0.00  0.00     0.000 C
ATOM     74   O  Z9K D   4      16.879  25.478   8.3280  0.00  0.00     0.000 O
ATOM     75   O  Z9K D   4      16.917  26.365  10.2850  0.00  0.00     0.000 OA
ENDBRANCH 64 73
BRANCH 60 76
ATOM     76  O4  Z9L D   5      21.484  25.395   8.1780  0.00  0.00     0.000 O
BRANCH 76 80
ATOM     77  C1  Z9L D   5      22.658  27.046   4.7330  0.00  0.00     0.000 C
ATOM     78  C2  Z9L D   5      21.294  27.773   5.1610  0.00  0.00     0.000 C
ATOM     79  C3  Z9L D   5      21.049  27.420   6.7970  0.00  0.00     0.000 C
ATOM     80  C4  Z9L D   5      21.455  25.824   6.8410  0.00  0.00     0.000 C
ATOM     81  C5  Z9L D   5      22.715  25.039   6.2120  0.00  0.00     0.000 C
ATOM     82  O5  Z9L D   5      22.927  25.596   4.9060  0.00  0.00     0.000 O
ATOM     83   C  Z9L D   5      25.064  27.268   4.9680  0.00  0.00     0.000 C
ATOM     84   C  Z9L D   5      25.064  27.268   4.9680  0.00  0.00     0.000 C
BRANCH 78 85
ATOM     85   O  Z9L D   5      21.470  29.145   5.0110  0.00  0.00     0.000 O
ATOM     86   O  Z9L D   5      20.595  30.235   3.6860  0.00  0.00     0.000 OA
ATOM     87   S  Z9L D   5      20.323  28.850   3.9250  0.00  0.00     0.000 S
ATOM     88   O  Z9L D   5      18.992  28.820   4.4780  0.00  0.00     0.000 OA
ATOM     89   O  Z9L D   5      20.732  28.179   2.7390  0.00  0.00     0.000 OA
ENDBRANCH 78 85
BRANCH 79 90
ATOM     90   O  Z9L D   5      19.694  27.397   7.1140  0.00  0.00     0.000 O
ATOM     91   S  Z9L D   5      20.180  28.541   8.1090  0.00  0.00     0.000 S
ATOM     92   O  Z9L D   5      20.873  29.716   7.6520  0.00  0.00     0.000 OA
ATOM     93   O  Z9L D   5      20.473  27.961   9.3960  0.00  0.00     0.000 O
ATOM     94   O  Z9L D   5      18.784  28.838   8.0880  0.00  0.00     0.000 OA
ENDBRANCH 79 90
BRANCH 81 95
ATOM     95   C  Z9L D   5      22.747  23.371   6.3850  0.00  0.00     0.000 C
ATOM     96   S  Z9L D   5      23.564  21.683   5.7150  0.00  0.00     0.000 S
ATOM     97   O  Z9L D   5      23.112  23.046   5.0700  0.00  0.00     0.000 O
ATOM     98   O  Z9L D   5      22.361  20.962   6.0450  0.00  0.00     0.000 OA
ATOM     99   O  Z9L D   5      24.655  21.760   6.6270  0.00  0.00     0.000 OA
ATOM    100   O  Z9L D   5      23.903  21.398   4.3430  0.00  0.00     0.000 O
ENDBRANCH 81 95
ENDBRANCH 76 80
ENDBRANCH 60 76
ENDBRANCH 59 63
ENDBRANCH 37 59
ENDBRANCH 36 40
ENDBRANCH 23 36
ENDBRANCH 22 26
ENDBRANCH 1 22
TORSDOF 19
ENDMDL
MODEL 2
REMARK VINA RESULT:      -5.9     10.222     16.576
ROOT
ATOM      1  C1  Z9H D   1      18.772  28.500   6.8050  0.00  0.00     0.000 C
ATOM      2  C2  Z9H D   1      19.053  26.990   6.9940  0.00  0.00     0.000 C
ATOM      3  C3  Z9H D   1      20.502  26.960   6.4180  0.00  0.00     0.000 C
ATOM      4  C4  Z9H D   1      20.684  27.645   5.0010  0.00  0.00     0.000 C
ATOM      5  C5  Z9H D   1      20.102  29.072   4.6500  0.00  0.00     0.000 C
ATOM      6  O5  Z9H D   1      18.927  29.120   5.4980  0.00  0.00     0.000 O
ATOM      7   O  Z9H D   1      21.034  25.634   6.4010  0.00  0.00     0.000 O
ATOM      8   C  Z9H D   1      21.899  25.303   7.5010  0.00  0.00     0.000 C
ATOM      9   O  Z9H D   1      22.096  27.696   4.7730  0.00  0.00     0.000 O
ATOM     10   C  Z9H D   1      22.624  26.665   3.9330  0.00  0.00     0.000 C
ENDROOT
BRANCH 2 11
ATOM     11   O  Z9H D   1      19.210  26.894   8.3860  0.00  0.00     0.000 O
ATOM     12   O  Z9H D   1      18.024  25.972   9.5250  0.00  0.00     0.000 OA
ATOM     13   S  Z9H D   1      17.902  26.037   8.1080  0.00  0.00     0.000 S
ATOM     14   O  Z9H D   1      18.289  24.828   7.4370  0.00  0.00     0.000 OA
ATOM     15   O  Z9H D   1      16.784  26.873   7.7350  0.00  0.00     0.000 O
ENDBRANCH 2 11
BRANCH 5 16
ATOM     16   C  Z9H D   1      20.011  29.418   3.0150  0.00  0.00     0.000 C
ATOM     17   S  Z9H D   1      18.927  29.131   1.3470  0.00  0.00     0.000 S
ATOM     18   O  Z9H D   1      18.608  29.433   2.9010  0.00  0.00     0.000 O
ATOM     19   O  Z9H D   1      19.491  27.837   1.0880  0.00  0.00     0.000 O
ATOM     20   O  Z9H D   1      19.364  30.316   0.6970  0.00  0.00     0.000 OA
ATOM     21   O  Z9H D   1      17.494  29.110   1.3010  0.00  0.00     0.000 OA
ENDBRANCH 5 16
BRANCH 1 22
ATOM     22  O4  GU1 D   2      19.608  29.393   7.6260  0.00  0.00     0.000 O
BRANCH 22 26
ATOM     23  C1  GU1 D   2      19.792  33.147   9.3110  0.00  0.00     0.000 C
ATOM     24  C2  GU1 D   2      18.385  32.611   9.0960  0.00  0.00     0.000 C
ATOM     25  C3  GU1 D   2      18.449  31.131   8.8500  0.00  0.00     0.000 C
ATOM     26  C4  GU1 D   2      19.418  30.809   7.7220  0.00  0.00     0.000 C
ATOM     27  C5  GU1 D   2      20.770  31.481   7.9840  0.00  0.00     0.000 C
ATOM     28  O5  GU1 D   2      20.601  32.883   8.1720  0.00  0.00     0.000 O
ATOM     29   O  GU1 D   2      17.550  32.838  10.2260  0.00  0.00     0.000 O
ATOM     30   C  GU1 D   2      16.738  33.998  10.1170  0.00  0.00     0.000 C
ATOM     31   C  GU1 D   2      16.421  30.016   9.5090  0.00  0.00     0.000 C
ATOM     32   O  GU1 D   2      17.144  30.679   8.4750  0.00  0.00     0.000 O
BRANCH 27 33
ATOM     33   C  GU1 D   2      21.714  31.279   6.8230  0.00  0.00     0.000 C
ATOM     34   O  GU1 D   2      21.610  32.011   5.8600  0.00  0.00     0.000 OA
ATOM     35   O  GU1 D   2      22.563  30.402   6.8590  0.00  0.00     0.000 O
ENDBRANCH 27 33
BRANCH 23 36
ATOM     36  O4  GU6 D   3      20.027  34.569   9.3230  0.00  0.00     0.000 O
BRANCH 36 40
ATOM     37  C1  GU6 D   3      19.948  38.611   9.9140  0.00  0.00     0.000 C
ATOM     38  C2  GU6 D   3      19.579  38.186   8.4980  0.00  0.00     0.000 C
ATOM     39  C3  GU6 D   3      19.373  36.694   8.4570  0.00  0.00     0.000 C
ATOM     40  C4  GU6 D   3      19.760  35.920   9.6420  0.00  0.00     0.000 C
ATOM     41  C5  GU6 D   3      21.070  36.518  10.2520  0.00  0.00     0.000 C
ATOM     42  O5  GU6 D   3      21.146  37.948  10.2880  0.00  0.00     0.000 O
BRANCH 38 43
ATOM     43   O  GU6 D   3      18.404  38.848   8.0700  0.00  0.00     0.000 O
ATOM     44   S  GU6 D   3      18.655  40.099   7.2380  0.00  0.00     0.000 S
ATOM     45   O  GU6 D   3      18.944  41.218   8.1510  0.00  0.00     0.000 OA
ATOM     46   O  GU6 D   3      19.822  39.861   6.3700  0.00  0.00     0.000 O
ATOM     47   O  GU6 D   3      17.473  40.367   6.4250  0.00  0.00     0.000 OA
ENDBRANCH 38 43
BRANCH 39 48
ATOM     48   O  GU6 D   3      18.624  36.093   7.4180  0.00  0.00     0.000 O
ATOM     49   S  GU6 D   3      18.991  35.860   5.9530  0.00  0.00     0.000 S
ATOM     50   O  GU6 D   3      20.248  35.109   5.8600  0.00  0.00     0.000 OA
ATOM     51   O  GU6 D   3      17.860  35.068   5.4490  0.00  0.00     0.000 OA
ATOM     52   O  GU6 D   3      19.132  37.170   5.2800  0.00  0.00     0.000 O
ENDBRANCH 39 48
BRANCH 41 53
ATOM     53   C  GU6 D   3      22.262  35.801  10.8250  0.00  0.00     0.000 C
ATOM     54   O  GU6 D   3      23.042  35.766   9.6580  0.00  0.00     0.000 O
ATOM     55   S  GU6 D   3      24.381  35.016   9.6390  0.00  0.00     0.000 S
ATOM     56   O  GU6 D   3      24.068  33.578   9.8090  0.00  0.00     0.000 O
ATOM     57   O  GU6 D   3      25.034  35.256   8.3440  0.00  0.00     0.000 OA
ATOM     58   O  GU6 D   3      25.184  35.523  10.7740  0.00  0.00     0.000 OA
ENDBRANCH 41 53
BRANCH 37 59
ATOM     59  O4  Z9K D   4      19.060  38.568  11.0500  0.00  0.00     0.000 O
BRANCH 59 63
ATOM     60  C1  Z9K D   4      16.573  41.602  11.2780  0.00  0.00     0.000 C
ATOM     61  C2  Z9K D   4      17.907  42.275  11.7010  0.00  0.00     0.000 C
ATOM     62  C3  Z9K D   4      18.939  41.095  11.4310  0.00  0.00     0.000 C
ATOM     63  C4  Z9K D   4      18.583  39.638  11.9170  0.00  0.00     0.000 C
ATOM     64  C5  Z9K D   4      17.087  39.316  12.0450  0.00  0.00     0.000 C
ATOM     65  O5  Z9K D   4      16.492  40.126  10.9970  0.00  0.00     0.000 O
ATOM     66   O  Z9K D   4      20.250  41.352  11.9640  0.00  0.00     0.000 O
ATOM     67   C  Z9K D   4      21.094  42.102  11.1060  0.00  0.00     0.000 C
BRANCH 61 68
ATOM     68   O  Z9K D   4      18.187  43.267  10.7520  0.00  0.00     0.000 O
ATOM     69   O  Z9K D   4      19.017  43.948  13.0760  0.00  0.00     0.000 OA
ATOM     70   S  Z9K D   4      17.985  44.141  12.1010  0.00  0.00     0.000 S
ATOM     71   O  Z9K D   4      16.586  44.257  12.3760  0.00  0.00     0.000 OA
ATOM     72   O  Z9K D   4      18.366  45.132  11.1470  0.00  0.00     0.000 OA
ENDBRANCH 61 68
BRANCH 64 73
ATOM     73   C  Z9K D   4      16.850  37.791  12.0270  0.00  0.00     0.000 C
ATOM     74   O  Z9K D   4      17.187  37.064  13.0070  0.00  0.00     0.000 O
ATOM     75   O  Z9K D   4      16.311  37.216  11.0500  0.00  0.00     0.000 OA
ENDBRANCH 64 73
BRANCH 60 76
ATOM     76  O4  Z9L D   5      15.293  41.664  11.9310  0.00  0.00     0.000 O
BRANCH 76 80
ATOM     77  C1  Z9L D   5      11.353  42.009  11.3580  0.00  0.00     0.000 C
ATOM     78  C2  Z9L D   5      11.614  40.544  11.9560  0.00  0.00     0.000 C
ATOM     79  C3  Z9L D   5      13.170  40.560  12.6180  0.00  0.00     0.000 C
ATOM     80  C4  Z9L D   5      13.998  41.392  11.4620  0.00  0.00     0.000 C
ATOM     81  C5  Z9L D   5      13.634  42.756  10.6810  0.00  0.00     0.000 C
ATOM     82  O5  Z9L D   5      12.235  42.683  10.3700  0.00  0.00     0.000 O
ATOM     83   C  Z9L D   5      10.844  44.273  12.0740  0.00  0.00     0.000 C
ATOM     84   C  Z9L D   5      10.844  44.273  12.0740  0.00  0.00     0.000 C
BRANCH 78 85
ATOM     85   O  Z9L D   5      10.688  40.321  12.9710  0.00  0.00     0.000 O
ATOM     86   O  Z9L D   5       9.251  39.040  12.8960  0.00  0.00     0.000 OA
ATOM     87   S  Z9L D   5      10.279  39.185  11.9090  0.00  0.00     0.000 S
ATOM     88   O  Z9L D   5      11.068  37.983  12.0110  0.00  0.00     0.000 OA
ATOM     89   O  Z9L D   5       9.610  39.628  10.7350  0.00  0.00     0.000 OA
ENDBRANCH 78 85
BRANCH 79 90
ATOM     90   O  Z9L D   5      13.758  39.300  12.5630  0.00  0.00     0.000 O
ATOM     91   S  Z9L D   5      13.808  39.548  14.1350  0.00  0.00     0.000 S
ATOM     92   O  Z9L D   5      12.630  39.847  14.9060  0.00  0.00     0.000 OA
ATOM     93   O  Z9L D   5      15.088  40.111  14.4890  0.00  0.00     0.000 O
ATOM     94   O  Z9L D   5      13.959  38.129  14.1260  0.00  0.00     0.000 OA
ENDBRANCH 79 90
BRANCH 81 95
ATOM     95   C  Z9L D   5      14.693  43.261   9.4830  0.00  0.00     0.000 C
ATOM     96   S  Z9L D   5      15.026  43.307   7.5190  0.00  0.00     0.000 S
ATOM     97   O  Z9L D   5      14.393  42.277   8.5290  0.00  0.00     0.000 O
ATOM     98   O  Z9L D   5      16.447  43.297   7.7520  0.00  0.00     0.000 OA
ATOM     99   O  Z9L D   5      14.311  44.527   7.3500  0.00  0.00     0.000 OA
ATOM    100   O  Z9L D   5      14.709  42.253   6.5870  0.00  0.00     0.000 O
ENDBRANCH 81 95
ENDBRANCH 76 80
ENDBRANCH 60 76
ENDBRANCH 59 63
ENDBRANCH 37 59
ENDBRANCH 36 40
ENDBRANCH 23 36
ENDBRANCH 22 26
ENDBRANCH 1 22
TORSDOF 19
ENDMDL
MODEL 3
REMARK VINA RESULT:      -5.8     11.018     16.904
ROOT
ATOM      1  C1  Z9H D   1      18.778  29.170   7.5320  0.00  0.00     0.000 C
ATOM      2  C2  Z9H D   1      18.489  27.797   8.1840  0.00  0.00     0.000 C
ATOM      3  C3  Z9H D   1      19.729  27.025   7.6370  0.00  0.00     0.000 C
ATOM      4  C4  Z9H D   1      19.969  27.145   6.0750  0.00  0.00     0.000 C
ATOM      5  C5  Z9H D   1      19.931  28.520   5.2980  0.00  0.00     0.000 C
ATOM      6  O5  Z9H D   1      18.984  29.275   6.0950  0.00  0.00     0.000 O
ATOM      7   O  Z9H D   1      19.712  25.653   8.0340  0.00  0.00     0.000 O
ATOM      8   C  Z9H D   1      20.524  25.332   9.1760  0.00  0.00     0.000 C
ATOM      9   O  Z9H D   1      21.253  26.558   5.8340  0.00  0.00     0.000 O
ATOM     10   C  Z9H D   1      21.235  25.210   5.3560  0.00  0.00     0.000 C
ENDROOT
BRANCH 2 11
ATOM     11   O  Z9H D   1      18.779  28.047   9.5340  0.00  0.00     0.000 O
ATOM     12   O  Z9H D   1      17.499  28.007  10.9190  0.00  0.00     0.000 OA
ATOM     13   S  Z9H D   1      17.228  27.708   9.5530  0.00  0.00     0.000 S
ATOM     14   O  Z9H D   1      17.069  26.307   9.2860  0.00  0.00     0.000 OA
ATOM     15   O  Z9H D   1      16.443  28.762   8.9530  0.00  0.00     0.000 O
ENDBRANCH 2 11
BRANCH 5 16
ATOM     16   C  Z9H D   1      19.763  28.392   3.6380  0.00  0.00     0.000 C
ATOM     17   S  Z9H D   1      19.519  29.437   1.9390  0.00  0.00     0.000 S
ATOM     18   O  Z9H D   1      20.391  29.601   3.2870  0.00  0.00     0.000 O
ATOM     19   O  Z9H D   1      18.102  29.578   2.1170  0.00  0.00     0.000 O
ATOM     20   O  Z9H D   1      20.104  28.457   1.0920  0.00  0.00     0.000 OA
ATOM     21   O  Z9H D   1      20.151  30.693   1.6570  0.00  0.00     0.000 OA
ENDBRANCH 5 16
BRANCH 1 22
ATOM     22  O4  GU1 D   2      19.990  29.846   8.0260  0.00  0.00     0.000 O
BRANCH 22 26
ATOM     23  C1  GU1 D   2      21.572  33.499   9.0850  0.00  0.00     0.000 C
ATOM     24  C2  GU1 D   2      20.071  33.368   9.2930  0.00  0.00     0.000 C
ATOM     25  C3  GU1 D   2      19.688  31.917   9.2440  0.00  0.00     0.000 C
ATOM     26  C4  GU1 D   2      20.200  31.262   7.9690  0.00  0.00     0.000 C
ATOM     27  C5  GU1 D   2      21.697  31.542   7.8010  0.00  0.00     0.000 C
ATOM     28  O5  GU1 D   2      21.948  32.944   7.8300  0.00  0.00     0.000 O
ATOM     29   O  GU1 D   2      19.660  33.894  10.5500  0.00  0.00     0.000 O
ATOM     30   C  GU1 D   2      19.172  35.226  10.4830  0.00  0.00     0.000 C
ATOM     31   C  GU1 D   2      17.699  31.463  10.5220  0.00  0.00     0.000 C
ATOM     32   O  GU1 D   2      18.259  31.827   9.2620  0.00  0.00     0.000 O
BRANCH 27 33
ATOM     33   C  GU1 D   2      22.208  31.007   6.4850  0.00  0.00     0.000 C
ATOM     34   O  GU1 D   2      21.942  31.618   5.4710  0.00  0.00     0.000 OA
ATOM     35   O  GU1 D   2      22.876  29.985   6.4470  0.00  0.00     0.000 O
ENDBRANCH 27 33
BRANCH 23 36
ATOM     36  O4  GU6 D   3      22.156  34.795   8.8450  0.00  0.00     0.000 O
BRANCH 36 40
ATOM     37  C1  GU6 D   3      22.900  38.812   8.7570  0.00  0.00     0.000 C
ATOM     38  C2  GU6 D   3      23.553  38.037   7.6190  0.00  0.00     0.000 C
ATOM     39  C3  GU6 D   3      23.003  36.635   7.5830  0.00  0.00     0.000 C
ATOM     40  C4  GU6 D   3      22.166  36.202   8.7070  0.00  0.00     0.000 C
ATOM     41  C5  GU6 D   3      22.734  36.792  10.0400  0.00  0.00     0.000 C
ATOM     42  O5  GU6 D   3      23.187  38.149   9.9790  0.00  0.00     0.000 O
BRANCH 38 43
ATOM     43   O  GU6 D   3      23.319  38.679   6.3810  0.00  0.00     0.000 O
ATOM     44   S  GU6 D   3      24.407  39.661   5.9660  0.00  0.00     0.000 S
ATOM     45   O  GU6 D   3      24.176  40.938   6.6640  0.00  0.00     0.000 OA
ATOM     46   O  GU6 D   3      25.714  39.112   6.3680  0.00  0.00     0.000 O
ATOM     47   O  GU6 D   3      24.360  39.831   4.5170  0.00  0.00     0.000 OA
ENDBRANCH 38 43
BRANCH 39 48
ATOM     48   O  GU6 D   3      23.095  35.849   6.4100  0.00  0.00     0.000 O
ATOM     49   S  GU6 D   3      24.278  35.064   5.8450  0.00  0.00     0.000 S
ATOM     50   O  GU6 D   3      24.787  34.123   6.8490  0.00  0.00     0.000 OA
ATOM     51   O  GU6 D   3      23.690  34.353   4.7010  0.00  0.00     0.000 OA
ATOM     52   O  GU6 D   3      25.343  36.015   5.4560  0.00  0.00     0.000 O
ENDBRANCH 39 48
BRANCH 41 53
ATOM     53   C  GU6 D   3      22.859  36.137  11.3890  0.00  0.00     0.000 C
ATOM     54   O  GU6 D   3      22.997  37.304  12.1560  0.00  0.00     0.000 O
ATOM     55   S  GU6 D   3      23.280  37.217  13.6620  0.00  0.00     0.000 S
ATOM     56   O  GU6 D   3      24.629  36.625  13.8100  0.00  0.00     0.000 O
ATOM     57   O  GU6 D   3      23.243  38.575  14.2240  0.00  0.00     0.000 OA
ATOM     58   O  GU6 D   3      22.245  36.339  14.2530  0.00  0.00     0.000 OA
ENDBRANCH 41 53
BRANCH 37 59
ATOM     59  O4  Z9K D   4      21.513  39.210   8.8000  0.00  0.00     0.000 O
BRANCH 59 63
ATOM     60  C1  Z9K D   4      19.983  42.796   9.2910  0.00  0.00     0.000 C
ATOM     61  C2  Z9K D   4      20.880  42.676  10.5540  0.00  0.00     0.000 C
ATOM     62  C3  Z9K D   4      21.635  41.309  10.2580  0.00  0.00     0.000 C
ATOM     63  C4  Z9K D   4      20.808  40.071   9.7400  0.00  0.00     0.000 C
ATOM     64  C5  Z9K D   4      19.513  40.396   8.9810  0.00  0.00     0.000 C
ATOM     65  O5  Z9K D   4      19.829  41.653   8.3260  0.00  0.00     0.000 O
ATOM     66   O  Z9K D   4      22.375  40.811  11.3880  0.00  0.00     0.000 O
ATOM     67   C  Z9K D   4      23.683  41.347  11.5130  0.00  0.00     0.000 C
BRANCH 61 68
ATOM     68   O  Z9K D   4      21.848  43.687  10.4680  0.00  0.00     0.000 O
ATOM     69   O  Z9K D   4      21.182  43.246  12.9000  0.00  0.00     0.000 OA
ATOM     70   S  Z9K D   4      21.016  44.130  11.7860  0.00  0.00     0.000 S
ATOM     71   O  Z9K D   4      19.787  44.740  11.3780  0.00  0.00     0.000 OA
ATOM     72   O  Z9K D   4      22.064  45.098  11.7430  0.00  0.00     0.000 OA
ENDBRANCH 61 68
BRANCH 64 73
ATOM     73   C  Z9K D   4      19.070  39.199   8.1130  0.00  0.00     0.000 C
ATOM     74   O  Z9K D   4      19.037  39.281   6.8510  0.00  0.00     0.000 O
ATOM     75   O  Z9K D   4      18.734  38.101   8.6220  0.00  0.00     0.000 OA
ENDBRANCH 64 73
BRANCH 60 76
ATOM     76  O4  Z9L D   5      18.605  43.201   9.2080  0.00  0.00     0.000 O
BRANCH 76 80
ATOM     77  C1  Z9L D   5      16.048  45.300   6.9670  0.00  0.00     0.000 C
ATOM     78  C2  Z9L D   5      15.469  43.808   7.0670  0.00  0.00     0.000 C
ATOM     79  C3  Z9L D   5      16.270  43.062   8.3570  0.00  0.00     0.000 C
ATOM     80  C4  Z9L D   5      17.815  43.582   8.1120  0.00  0.00     0.000 C
ATOM     81  C5  Z9L D   5      18.393  45.050   7.7790  0.00  0.00     0.000 C
ATOM     82  O5  Z9L D   5      17.489  45.634   6.8290  0.00  0.00     0.000 O
ATOM     83   C  Z9L D   5      15.910  47.454   8.0790  0.00  0.00     0.000 C
ATOM     84   C  Z9L D   5      15.910  47.454   8.0790  0.00  0.00     0.000 C
BRANCH 78 85
ATOM     85   O  Z9L D   5      14.111  43.891   7.3600  0.00  0.00     0.000 O
ATOM     86   O  Z9L D   5      12.689  43.338   6.1840  0.00  0.00     0.000 OA
ATOM     87   S  Z9L D   5      14.085  43.140   5.9400  0.00  0.00     0.000 S
ATOM     88   O  Z9L D   5      14.283  41.714   6.0320  0.00  0.00     0.000 OA
ATOM     89   O  Z9L D   5      14.382  43.934   4.7980  0.00  0.00     0.000 OA
ENDBRANCH 78 85
BRANCH 79 90
ATOM     90   O  Z9L D   5      16.379  41.688   8.1600  0.00  0.00     0.000 O
ATOM     91   S  Z9L D   5      15.631  41.698   9.5660  0.00  0.00     0.000 S
ATOM     92   O  Z9L D   5      14.380  42.380   9.7690  0.00  0.00     0.000 OA
ATOM     93   O  Z9L D   5      16.606  41.606  10.6250  0.00  0.00     0.000 O
ATOM     94   O  Z9L D   5      15.326  40.366   9.1570  0.00  0.00     0.000 OA
ENDBRANCH 79 90
BRANCH 81 95
ATOM     95   C  Z9L D   5      20.041  45.182   7.5000  0.00  0.00     0.000 C
ATOM     96   S  Z9L D   5      21.555  46.457   7.2770  0.00  0.00     0.000 S
ATOM     97   O  Z9L D   5      20.033  46.438   6.8750  0.00  0.00     0.000 O
ATOM     98   O  Z9L D   5      22.225  45.521   6.4100  0.00  0.00     0.000 OA
ATOM     99   O  Z9L D   5      21.827  46.497   8.6740  0.00  0.00     0.000 OA
ATOM    100   O  Z9L D   5      21.490  47.732   6.6070  0.00  0.00     0.000 O
ENDBRANCH 81 95
ENDBRANCH 76 80
ENDBRANCH 60 76
ENDBRANCH 59 63
ENDBRANCH 37 59
ENDBRANCH 36 40
ENDBRANCH 23 36
ENDBRANCH 22 26
ENDBRANCH 1 22
TORSDOF 19
ENDMDL
MODEL 4
REMARK VINA RESULT:      -5.5     10.373     16.255
ROOT
ATOM      1  C1  Z9H D   1      18.262  28.043   7.3570  0.00  0.00     0.000 C
ATOM      2  C2  Z9H D   1      18.574  26.602   7.8280  0.00  0.00     0.000 C
ATOM      3  C3  Z9H D   1      20.034  26.503   7.2880  0.00  0.00     0.000 C
ATOM      4  C4  Z9H D   1      20.227  26.918   5.7710  0.00  0.00     0.000 C
ATOM      5  C5  Z9H D   1      19.619  28.240   5.1530  0.00  0.00     0.000 C
ATOM      6  O5  Z9H D   1      18.428  28.414   5.9600  0.00  0.00     0.000 O
ATOM      7   O  Z9H D   1      20.596  25.211   7.5260  0.00  0.00     0.000 O
ATOM      8   C  Z9H D   1      21.448  25.113   8.6800  0.00  0.00     0.000 C
ATOM      9   O  Z9H D   1      21.641  26.962   5.5570  0.00  0.00     0.000 O
ATOM     10   C  Z9H D   1      22.208  25.807   4.9310  0.00  0.00     0.000 C
ENDROOT
BRANCH 2 11
ATOM     11   O  Z9H D   1      18.708  26.771   9.2150  0.00  0.00     0.000 O
ATOM     12   O  Z9H D   1      17.528  26.035  10.4900  0.00  0.00     0.000 OA
ATOM     13   S  Z9H D   1      17.432  25.833   9.0840  0.00  0.00     0.000 S
ATOM     14   O  Z9H D   1      17.869  24.535   8.6540  0.00  0.00     0.000 OA
ATOM     15   O  Z9H D   1      16.297  26.548   8.5480  0.00  0.00     0.000 O
ENDBRANCH 2 11
BRANCH 5 16
ATOM     16   C  Z9H D   1      19.551  28.273   3.4810  0.00  0.00     0.000 C
ATOM     17   S  Z9H D   1      19.619  29.474   1.8710  0.00  0.00     0.000 S
ATOM     18   O  Z9H D   1      20.408  29.370   3.2760  0.00  0.00     0.000 O
ATOM     19   O  Z9H D   1      18.241  29.860   1.9810  0.00  0.00     0.000 O
ATOM     20   O  Z9H D   1      20.079  28.472   0.9740  0.00  0.00     0.000 OA
ATOM     21   O  Z9H D   1      20.484  30.610   1.7390  0.00  0.00     0.000 OA
ENDBRANCH 5 16
BRANCH 1 22
ATOM     22  O4  GU1 D   2      19.063  29.094   8.0100  0.00  0.00     0.000 O
BRANCH 22 26
ATOM     23  C1  GU1 D   2      18.881  32.996   9.3180  0.00  0.00     0.000 C
ATOM     24  C2  GU1 D   2      17.531  32.318   9.1400  0.00  0.00     0.000 C
ATOM     25  C3  GU1 D   2      17.730  30.833   9.0420  0.00  0.00     0.000 C
ATOM     26  C4  GU1 D   2      18.747  30.491   7.9630  0.00  0.00     0.000 C
ATOM     27  C5  GU1 D   2      20.029  31.303   8.1730  0.00  0.00     0.000 C
ATOM     28  O5  GU1 D   2      19.734  32.696   8.2190  0.00  0.00     0.000 O
ATOM     29   O  GU1 D   2      16.657  32.578  10.2320  0.00  0.00     0.000 O
ATOM     30   C  GU1 D   2      15.748  33.645   9.9990  0.00  0.00     0.000 C
ATOM     31   C  GU1 D   2      15.795  29.610   9.7840  0.00  0.00     0.000 C
ATOM     32   O  GU1 D   2      16.478  30.231   8.6980  0.00  0.00     0.000 O
BRANCH 27 33
ATOM     33   C  GU1 D   2      21.011  31.074   7.0490  0.00  0.00     0.000 C
ATOM     34   O  GU1 D   2      21.001  31.841   6.1090  0.00  0.00     0.000 OA
ATOM     35   O  GU1 D   2      21.797  30.141   7.0920  0.00  0.00     0.000 O
ENDBRANCH 27 33
BRANCH 23 36
ATOM     36  O4  GU6 D   3      18.990  34.428   9.1920  0.00  0.00     0.000 O
BRANCH 36 40
ATOM     37  C1  GU6 D   3      20.646  37.819  10.7590  0.00  0.00     0.000 C
ATOM     38  C2  GU6 D   3      21.525  37.120   9.7290  0.00  0.00     0.000 C
ATOM     39  C3  GU6 D   3      20.727  36.056   9.0230  0.00  0.00     0.000 C
ATOM     40  C4  GU6 D   3      19.401  35.729   9.5600  0.00  0.00     0.000 C
ATOM     41  C5  GU6 D   3      19.445  35.775  11.1230  0.00  0.00     0.000 C
ATOM     42  O5  GU6 D   3      20.192  36.854  11.6950  0.00  0.00     0.000 O
BRANCH 38 43
ATOM     43   O  GU6 D   3      22.027  38.051   8.7900  0.00  0.00     0.000 O
ATOM     44   S  GU6 D   3      23.547  38.143   8.7460  0.00  0.00     0.000 S
ATOM     45   O  GU6 D   3      23.995  39.018   9.8420  0.00  0.00     0.000 OA
ATOM     46   O  GU6 D   3      24.106  36.792   8.9380  0.00  0.00     0.000 O
ATOM     47   O  GU6 D   3      23.949  38.670   7.4450  0.00  0.00     0.000 OA
ENDBRANCH 38 43
BRANCH 39 48
ATOM     48   O  GU6 D   3      21.134  35.559   7.7620  0.00  0.00     0.000 O
ATOM     49   S  GU6 D   3      20.636  35.913   6.3610  0.00  0.00     0.000 S
ATOM     50   O  GU6 D   3      20.743  37.359   6.1370  0.00  0.00     0.000 OA
ATOM     51   O  GU6 D   3      21.553  35.171   5.4850  0.00  0.00     0.000 OA
ATOM     52   O  GU6 D   3      19.227  35.482   6.2300  0.00  0.00     0.000 O
ENDBRANCH 39 48
BRANCH 41 53
ATOM     53   C  GU6 D   3      18.796  34.849  12.1160  0.00  0.00     0.000 C
ATOM     54   O  GU6 D   3      19.936  34.100  12.4510  0.00  0.00     0.000 O
ATOM     55   S  GU6 D   3      19.824  32.889  13.3870  0.00  0.00     0.000 S
ATOM     56   O  GU6 D   3      19.020  31.870  12.6730  0.00  0.00     0.000 O
ATOM     57   O  GU6 D   3      21.177  32.384  13.6630  0.00  0.00     0.000 OA
ATOM     58   O  GU6 D   3      19.136  33.345  14.6150  0.00  0.00     0.000 OA
ENDBRANCH 41 53
BRANCH 37 59
ATOM     59  O4  Z9K D   4      19.527  38.675  10.4480  0.00  0.00     0.000 O
BRANCH 59 63
ATOM     60  C1  Z9K D   4      17.257  41.754   9.5430  0.00  0.00     0.000 C
ATOM     61  C2  Z9K D   4      18.662  42.292   9.1550  0.00  0.00     0.000 C
ATOM     62  C3  Z9K D   4      19.549  40.986   9.3480  0.00  0.00     0.000 C
ATOM     63  C4  Z9K D   4      19.353  40.109  10.6430  0.00  0.00     0.000 C
ATOM     64  C5  Z9K D   4      17.970  40.185  11.3070  0.00  0.00     0.000 C
ATOM     65  O5  Z9K D   4      17.082  40.402  10.1780  0.00  0.00     0.000 O
ATOM     66   O  Z9K D   4      20.963  41.243   9.2860  0.00  0.00     0.000 O
ATOM     67   C  Z9K D   4      21.501  41.249   7.9740  0.00  0.00     0.000 C
BRANCH 61 68
ATOM     68   O  Z9K D   4      18.638  42.551   7.7780  0.00  0.00     0.000 O
ATOM     69   O  Z9K D   4      20.214  44.158   8.9960  0.00  0.00     0.000 OA
ATOM     70   S  Z9K D   4      18.923  44.023   8.3920  0.00  0.00     0.000 S
ATOM     71   O  Z9K D   4      17.699  44.559   8.9050  0.00  0.00     0.000 OA
ATOM     72   O  Z9K D   4      18.991  44.258   6.9850  0.00  0.00     0.000 OA
ENDBRANCH 61 68
BRANCH 64 73
ATOM     73   C  Z9K D   4      17.729  38.961  12.2160  0.00  0.00     0.000 C
ATOM     74   O  Z9K D   4      16.944  38.031  11.8690  0.00  0.00     0.000 O
ATOM     75   O  Z9K D   4      18.303  38.838  13.3250  0.00  0.00     0.000 OA
ENDBRANCH 64 73
BRANCH 60 76
ATOM     76  O4  Z9L D   5      16.247  42.388  10.3460  0.00  0.00     0.000 O
BRANCH 76 80
ATOM     77  C1  Z9L D   5      12.378  43.361  10.5740  0.00  0.00     0.000 C
ATOM     78  C2  Z9L D   5      12.651  42.256  11.7040  0.00  0.00     0.000 C
ATOM     79  C3  Z9L D   5      14.328  42.187  11.9190  0.00  0.00     0.000 C
ATOM     80  C4  Z9L D   5      14.849  42.253  10.3570  0.00  0.00     0.000 C
ATOM     81  C5  Z9L D   5      14.412  43.215   9.1400  0.00  0.00     0.000 C
ATOM     82  O5  Z9L D   5      12.985  43.344   9.2190  0.00  0.00     0.000 O
ATOM     83   C  Z9L D   5      12.349  45.768  10.2600  0.00  0.00     0.000 C
ATOM     84   C  Z9L D   5      12.349  45.768  10.2600  0.00  0.00     0.000 C
BRANCH 78 85
ATOM     85   O  Z9L D   5      12.058  42.690  12.8850  0.00  0.00     0.000 O
ATOM     86   O  Z9L D   5      10.505  41.894  13.7020  0.00  0.00     0.000 OA
ATOM     87   S  Z9L D   5      11.193  41.376  12.5580  0.00  0.00     0.000 S
ATOM     88   O  Z9L D   5      11.803  40.151  13.0120  0.00  0.00     0.000 OA
ATOM     89   O  Z9L D   5      10.265  41.479  11.4850  0.00  0.00     0.000 OA
ENDBRANCH 78 85
BRANCH 79 90
ATOM     90   O  Z9L D   5      14.735  40.918  12.3210  0.00  0.00     0.000 O
ATOM     91   S  Z9L D   5      15.235  41.767  13.5710  0.00  0.00     0.000 S
ATOM     92   O  Z9L D   5      14.350  42.602  14.3400  0.00  0.00     0.000 OA
ATOM     93   O  Z9L D   5      16.617  42.131  13.3790  0.00  0.00     0.000 O
ATOM     94   O  Z9L D   5      15.220  40.471  14.1700  0.00  0.00     0.000 OA
ENDBRANCH 79 90
BRANCH 81 95
ATOM     95   C  Z9L D   5      15.107  42.923   7.6410  0.00  0.00     0.000 C
ATOM     96   S  Z9L D   5      14.806  42.967   5.6730  0.00  0.00     0.000 S
ATOM     97   O  Z9L D   5      13.932  42.623   6.9370  0.00  0.00     0.000 O
ATOM     98   O  Z9L D   5      15.732  41.878   5.4990  0.00  0.00     0.000 OA
ATOM     99   O  Z9L D   5      15.227  44.323   5.5620  0.00  0.00     0.000 OA
ATOM    100   O  Z9L D   5      13.574  42.630   5.0020  0.00  0.00     0.000 O
ENDBRANCH 81 95
ENDBRANCH 76 80
ENDBRANCH 60 76
ENDBRANCH 59 63
ENDBRANCH 37 59
ENDBRANCH 36 40
ENDBRANCH 23 36
ENDBRANCH 22 26
ENDBRANCH 1 22
TORSDOF 19
ENDMDL
MODEL 5
REMARK VINA RESULT:      -5.2     10.092     15.181
ROOT
ATOM      1  C1  Z9H D   1      14.322  41.858   8.6590  0.00  0.00     0.000 C
ATOM      2  C2  Z9H D   1      13.715  43.223   8.2590  0.00  0.00     0.000 C
ATOM      3  C3  Z9H D   1      13.768  43.909   9.6590  0.00  0.00     0.000 C
ATOM      4  C4  Z9H D   1      13.151  43.067  10.8520  0.00  0.00     0.000 C
ATOM      5  C5  Z9H D   1      13.487  41.542  11.0970  0.00  0.00     0.000 C
ATOM      6  O5  Z9H D   1      13.743  41.083   9.7460  0.00  0.00     0.000 O
ATOM      7   O  Z9H D   1      13.196  45.218   9.6260  0.00  0.00     0.000 O
ATOM      8   C  Z9H D   1      14.137  46.299   9.5110  0.00  0.00     0.000 C
ATOM      9   O  Z9H D   1      13.499  43.774  12.0470  0.00  0.00     0.000 O
ATOM     10   C  Z9H D   1      12.472  44.609  12.5910  0.00  0.00     0.000 C
ENDROOT
BRANCH 2 11
ATOM     11   O  Z9H D   1      14.762  43.805   7.5270  0.00  0.00     0.000 O
ATOM     12   O  Z9H D   1      14.685  44.172   5.6780  0.00  0.00     0.000 OA
ATOM     13   S  Z9H D   1      13.614  43.627   6.4430  0.00  0.00     0.000 S
ATOM     14   O  Z9H D   1      12.570  44.568   6.7320  0.00  0.00     0.000 OA
ATOM     15   O  Z9H D   1      13.410  42.237   6.1050  0.00  0.00     0.000 O
ENDBRANCH 2 11
BRANCH 5 16
ATOM     16   C  Z9H D   1      12.420  40.735  12.1030  0.00  0.00     0.000 C
ATOM     17   S  Z9H D   1      11.394  39.026  12.3550  0.00  0.00     0.000 S
ATOM     18   O  Z9H D   1      12.876  39.427  11.8560  0.00  0.00     0.000 O
ATOM     19   O  Z9H D   1      10.334  39.421  11.4730  0.00  0.00     0.000 O
ATOM     20   O  Z9H D   1      11.309  39.127  13.7700  0.00  0.00     0.000 OA
ATOM     21   O  Z9H D   1      11.896  37.721  12.0390  0.00  0.00     0.000 OA
ENDBRANCH 5 16
BRANCH 1 22
ATOM     22  O4  GU1 D   2      15.731  41.909   9.0890  0.00  0.00     0.000 O
BRANCH 22 26
ATOM     23  C1  GU1 D   2      19.359  39.958   9.0210  0.00  0.00     0.000 C
ATOM     24  C2  GU1 D   2      18.544  39.838   7.7420  0.00  0.00     0.000 C
ATOM     25  C3  GU1 D   2      17.460  40.876   7.7440  0.00  0.00     0.000 C
ATOM     26  C4  GU1 D   2      16.634  40.798   9.0190  0.00  0.00     0.000 C
ATOM     27  C5  GU1 D   2      17.555  40.822  10.2430  0.00  0.00     0.000 C
ATOM     28  O5  GU1 D   2      18.523  39.780  10.1580  0.00  0.00     0.000 O
ATOM     29   O  GU1 D   2      19.343  40.031   6.5810  0.00  0.00     0.000 O
ATOM     30   C  GU1 D   2      19.791  38.823   5.9840  0.00  0.00     0.000 C
ATOM     31   C  GU1 D   2      16.803  41.503   5.5140  0.00  0.00     0.000 C
ATOM     32   O  GU1 D   2      16.599  40.634   6.6260  0.00  0.00     0.000 O
BRANCH 27 33
ATOM     33   C  GU1 D   2      16.772  40.625  11.5200  0.00  0.00     0.000 C
ATOM     34   O  GU1 D   2      16.713  41.546  12.3080  0.00  0.00     0.000 OA
ATOM     35   O  GU1 D   2      16.212  39.564  11.7470  0.00  0.00     0.000 O
ENDBRANCH 27 33
BRANCH 23 36
ATOM     36  O4  GU6 D   3      20.299  38.925   9.3760  0.00  0.00     0.000 O
BRANCH 36 40
ATOM     37  C1  GU6 D   3      22.818  35.708   9.3980  0.00  0.00     0.000 C
ATOM     38  C2  GU6 D   3      22.019  35.877  10.6840  0.00  0.00     0.000 C
ATOM     39  C3  GU6 D   3      20.940  36.907  10.4770  0.00  0.00     0.000 C
ATOM     40  C4  GU6 D   3      20.977  37.692   9.2380  0.00  0.00     0.000 C
ATOM     41  C5  GU6 D   3      22.462  38.021   8.8720  0.00  0.00     0.000 C
ATOM     42  O5  GU6 D   3      23.402  36.957   9.0610  0.00  0.00     0.000 O
BRANCH 38 43
ATOM     43   O  GU6 D   3      21.442  34.646  11.0770  0.00  0.00     0.000 O
ATOM     44   S  GU6 D   3      22.294  33.831  12.0420  0.00  0.00     0.000 S
ATOM     45   O  GU6 D   3      23.310  33.100  11.2660  0.00  0.00     0.000 OA
ATOM     46   O  GU6 D   3      22.962  34.756  12.9750  0.00  0.00     0.000 O
ATOM     47   O  GU6 D   3      21.427  32.917  12.7780  0.00  0.00     0.000 OA
ENDBRANCH 38 43
BRANCH 39 48
ATOM     48   O  GU6 D   3      19.808  36.955  11.3240  0.00  0.00     0.000 O
ATOM     49   S  GU6 D   3      19.670  37.500  12.7450  0.00  0.00     0.000 S
ATOM     50   O  GU6 D   3      20.114  38.898  12.7960  0.00  0.00     0.000 OA
ATOM     51   O  GU6 D   3      18.227  37.392  13.0040  0.00  0.00     0.000 OA
ATOM     52   O  GU6 D   3      20.491  36.674  13.6580  0.00  0.00     0.000 O
ENDBRANCH 39 48
BRANCH 41 53
ATOM     53   C  GU6 D   3      23.044  39.299   8.3310  0.00  0.00     0.000 C
ATOM     54   O  GU6 D   3      23.999  38.727   7.4750  0.00  0.00     0.000 O
ATOM     55   S  GU6 D   3      24.996  39.614   6.7180  0.00  0.00     0.000 S
ATOM     56   O  GU6 D   3      25.872  40.238   7.7370  0.00  0.00     0.000 O
ATOM     57   O  GU6 D   3      25.780  38.766   5.8080  0.00  0.00     0.000 OA
ATOM     58   O  GU6 D   3      24.211  40.637   5.9920  0.00  0.00     0.000 OA
ENDBRANCH 41 53
BRANCH 37 59
ATOM     59  O4  Z9K D   4      22.312  35.128   8.1780  0.00  0.00     0.000 O
BRANCH 59 63
ATOM     60  C1  Z9K D   4      24.091  31.649   7.7530  0.00  0.00     0.000 C
ATOM     61  C2  Z9K D   4      25.136  32.602   7.1100  0.00  0.00     0.000 C
ATOM     62  C3  Z9K D   4      24.499  34.019   7.4480  0.00  0.00     0.000 C
ATOM     63  C4  Z9K D   4      22.957  34.244   7.2150  0.00  0.00     0.000 C
ATOM     64  C5  Z9K D   4      22.075  32.987   7.2800  0.00  0.00     0.000 C
ATOM     65  O5  Z9K D   4      22.766  32.159   8.2510  0.00  0.00     0.000 O
ATOM     66   O  Z9K D   4      25.139  35.109   6.7600  0.00  0.00     0.000 O
ATOM     67   C  Z9K D   4      26.288  35.622   7.4150  0.00  0.00     0.000 C
BRANCH 61 68
ATOM     68   O  Z9K D   4      26.307  32.504   7.8730  0.00  0.00     0.000 O
ATOM     69   O  Z9K D   4      26.843  32.897   5.4020  0.00  0.00     0.000 OA
ATOM     70   S  Z9K D   4      26.789  31.916   6.4430  0.00  0.00     0.000 S
ATOM     71   O  Z9K D   4      26.308  30.575   6.3050  0.00  0.00     0.000 OA
ATOM     72   O  Z9K D   4      27.998  31.911   7.2010  0.00  0.00     0.000 OA
ENDBRANCH 61 68
BRANCH 64 73
ATOM     73   C  Z9K D   4      20.601  33.364   7.5410  0.00  0.00     0.000 C
ATOM     74   O  Z9K D   4      20.012  33.008   8.6030  0.00  0.00     0.000 O
ATOM     75   O  Z9K D   4      19.935  34.039   6.7190  0.00  0.00     0.000 OA
ENDBRANCH 64 73
BRANCH 60 76
ATOM     76  O4  Z9L D   5      23.551  30.426   7.2240  0.00  0.00     0.000 O
BRANCH 76 80
ATOM     77  C1  Z9L D   5      22.548  26.673   8.1630  0.00  0.00     0.000 C
ATOM     78  C2  Z9L D   5      21.204  27.417   7.7030  0.00  0.00     0.000 C
ATOM     79  C3  Z9L D   5      21.681  28.819   6.8850  0.00  0.00     0.000 C
ATOM     80  C4  Z9L D   5      22.904  29.349   7.8520  0.00  0.00     0.000 C
ATOM     81  C5  Z9L D   5      24.143  28.557   8.5140  0.00  0.00     0.000 C
ATOM     82  O5  Z9L D   5      23.621  27.302   8.9740  0.00  0.00     0.000 O
ATOM     83   C  Z9L D   5      24.359  25.330   7.2630  0.00  0.00     0.000 C
ATOM     84   C  Z9L D   5      24.359  25.330   7.2630  0.00  0.00     0.000 C
BRANCH 78 85
ATOM     85   O  Z9L D   5      20.527  26.581   6.8200  0.00  0.00     0.000 O
ATOM     86   O  Z9L D   5      18.846  25.715   7.1840  0.00  0.00     0.000 OA
ATOM     87   S  Z9L D   5      19.482  26.672   8.0370  0.00  0.00     0.000 S
ATOM     88   O  Z9L D   5      18.634  27.838   7.9890  0.00  0.00     0.000 OA
ATOM     89   O  Z9L D   5      19.820  25.955   9.2180  0.00  0.00     0.000 OA
ENDBRANCH 78 85
BRANCH 79 90
ATOM     90   O  Z9L D   5      20.732  29.829   7.0150  0.00  0.00     0.000 O
ATOM     91   S  Z9L D   5      20.777  29.708   5.4270  0.00  0.00     0.000 S
ATOM     92   O  Z9L D   5      20.532  28.466   4.7420  0.00  0.00     0.000 OA
ATOM     93   O  Z9L D   5      21.709  30.674   4.9010  0.00  0.00     0.000 O
ATOM     94   O  Z9L D   5      19.520  30.369   5.5680  0.00  0.00     0.000 OA
ENDBRANCH 79 90
BRANCH 81 95
ATOM     95   C  Z9L D   5      25.153  29.425   9.5340  0.00  0.00     0.000 C
ATOM     96   S  Z9L D   5      25.523  29.909  11.4300  0.00  0.00     0.000 S
ATOM     97   O  Z9L D   5      24.231  29.666  10.5630  0.00  0.00     0.000 O
ATOM     98   O  Z9L D   5      26.074  31.171  11.0080  0.00  0.00     0.000 OA
ATOM     99   O  Z9L D   5      26.353  28.771  11.6380  0.00  0.00     0.000 OA
ATOM    100   O  Z9L D   5      24.529  30.162  12.4440  0.00  0.00     0.000 O
ENDBRANCH 81 95
ENDBRANCH 76 80
ENDBRANCH 60 76
ENDBRANCH 59 63
ENDBRANCH 37 59
ENDBRANCH 36 40
ENDBRANCH 23 36
ENDBRANCH 22 26
ENDBRANCH 1 22
TORSDOF 19
ENDMDL
MODEL 6
REMARK VINA RESULT:      -5.2      4.458      9.894
ROOT
ATOM      1  C1  Z9H D   1      12.839  33.678   9.5120  0.00  0.00     0.000 C
ATOM      2  C2  Z9H D   1      12.179  34.703  10.4650  0.00  0.00     0.000 C
ATOM      3  C3  Z9H D   1      11.039  33.793  11.0160  0.00  0.00     0.000 C
ATOM      4  C4  Z9H D   1      10.181  33.040   9.9170  0.00  0.00     0.000 C
ATOM      5  C5  Z9H D   1      10.824  32.253   8.7070  0.00  0.00     0.000 C
ATOM      6  O5  Z9H D   1      12.048  33.000   8.4970  0.00  0.00     0.000 O
ATOM      7   O  Z9H D   1      10.185  34.505  11.9130  0.00  0.00     0.000 O
ATOM      8   C  Z9H D   1      10.461  34.312  13.3100  0.00  0.00     0.000 C
ATOM      9   O  Z9H D   1       9.358  32.113  10.6350  0.00  0.00     0.000 O
ATOM     10   C  Z9H D   1       8.012  32.537  10.8690  0.00  0.00     0.000 C
ENDROOT
BRANCH 2 11
ATOM     11   O  Z9H D   1      13.119  34.783  11.5050  0.00  0.00     0.000 O
ATOM     12   O  Z9H D   1      14.133  36.323  11.9010  0.00  0.00     0.000 OA
ATOM     13   S  Z9H D   1      13.143  36.243  10.8800  0.00  0.00     0.000 S
ATOM     14   O  Z9H D   1      11.910  36.898  11.2150  0.00  0.00     0.000 OA
ATOM     15   O  Z9H D   1      13.763  36.256   9.5750  0.00  0.00     0.000 O
ENDBRANCH 2 11
BRANCH 5 16
ATOM     16   C  Z9H D   1       9.780  31.919   7.4430  0.00  0.00     0.000 C
ATOM     17   S  Z9H D   1       7.954  32.300   6.6940  0.00  0.00     0.000 S
ATOM     18   O  Z9H D   1       9.118  33.160   7.4070  0.00  0.00     0.000 O
ATOM     19   O  Z9H D   1       7.301  31.347   7.5450  0.00  0.00     0.000 O
ATOM     20   O  Z9H D   1       8.303  32.028   5.3430  0.00  0.00     0.000 OA
ATOM     21   O  Z9H D   1       7.310  33.580   6.7290  0.00  0.00     0.000 OA
ENDBRANCH 5 16
BRANCH 1 22
ATOM     22  O4  GU1 D   2      13.461  32.522  10.1820  0.00  0.00     0.000 O
BRANCH 22 26
ATOM     23  C1  GU1 D   2      16.607  29.876   9.9040  0.00  0.00     0.000 C
ATOM     24  C2  GU1 D   2      16.802  31.183   9.1510  0.00  0.00     0.000 C
ATOM     25  C3  GU1 D   2      15.796  32.189   9.6310  0.00  0.00     0.000 C
ATOM     26  C4  GU1 D   2      14.384  31.627   9.5490  0.00  0.00     0.000 C
ATOM     27  C5  GU1 D   2      14.320  30.265  10.2470  0.00  0.00     0.000 C
ATOM     28  O5  GU1 D   2      15.290  29.377   9.6970  0.00  0.00     0.000 O
ATOM     29   O  GU1 D   2      18.102  31.724   9.3520  0.00  0.00     0.000 O
ATOM     30   C  GU1 D   2      19.023  31.407   8.3180  0.00  0.00     0.000 C
ATOM     31   C  GU1 D   2      16.577  34.449   9.3610  0.00  0.00     0.000 C
ATOM     32   O  GU1 D   2      15.877  33.345   8.7920  0.00  0.00     0.000 O
BRANCH 27 33
ATOM     33   C  GU1 D   2      12.962  29.628  10.0780  0.00  0.00     0.000 C
ATOM     34   O  GU1 D   2      12.667  29.175   8.9910  0.00  0.00     0.000 OA
ATOM     35   O  GU1 D   2      12.183  29.567  11.0170  0.00  0.00     0.000 O
ENDBRANCH 27 33
BRANCH 23 36
ATOM     36  O4  GU6 D   3      17.280  28.681   9.4610  0.00  0.00     0.000 O
BRANCH 36 40
ATOM     37  C1  GU6 D   3      18.711  24.883   8.9950  0.00  0.00     0.000 C
ATOM     38  C2  GU6 D   3      19.166  25.562  10.2810  0.00  0.00     0.000 C
ATOM     39  C3  GU6 D   3      18.379  26.829  10.4890  0.00  0.00     0.000 C
ATOM     40  C4  GU6 D   3      17.530  27.292   9.3860  0.00  0.00     0.000 C
ATOM     41  C5  GU6 D   3      18.252  27.027   8.0230  0.00  0.00     0.000 C
ATOM     42  O5  GU6 D   3      18.933  25.772   7.9120  0.00  0.00     0.000 O
BRANCH 38 43
ATOM     43   O  GU6 D   3      18.992  24.698  11.3880  0.00  0.00     0.000 O
ATOM     44   S  GU6 D   3      20.222  23.872  11.7410  0.00  0.00     0.000 S
ATOM     45   O  GU6 D   3      20.273  22.703  10.8460  0.00  0.00     0.000 OA
ATOM     46   O  GU6 D   3      21.423  24.702  11.5310  0.00  0.00     0.000 O
ATOM     47   O  GU6 D   3      20.132  23.467  13.1400  0.00  0.00     0.000 OA
ENDBRANCH 38 43
BRANCH 39 48
ATOM     48   O  GU6 D   3      18.277  27.419  11.7710  0.00  0.00     0.000 O
ATOM     49   S  GU6 D   3      19.262  28.320  12.5160  0.00  0.00     0.000 S
ATOM     50   O  GU6 D   3      19.597  29.490  11.6960  0.00  0.00     0.000 OA
ATOM     51   O  GU6 D   3      18.512  28.710  13.7170  0.00  0.00     0.000 OA
ATOM     52   O  GU6 D   3      20.487  27.545  12.8170  0.00  0.00     0.000 O
ENDBRANCH 39 48
BRANCH 41 53
ATOM     53   C  GU6 D   3      18.321  27.902   6.8020  0.00  0.00     0.000 C
ATOM     54   O  GU6 D   3      19.500  27.371   6.2530  0.00  0.00     0.000 O
ATOM     55   S  GU6 D   3      20.124  27.996   4.9980  0.00  0.00     0.000 S
ATOM     56   O  GU6 D   3      20.580  29.353   5.3770  0.00  0.00     0.000 O
ATOM     57   O  GU6 D   3      21.261  27.164   4.5770  0.00  0.00     0.000 OA
ATOM     58   O  GU6 D   3      19.065  28.059   3.9660  0.00  0.00     0.000 OA
ENDBRANCH 41 53
BRANCH 37 59
ATOM     59  O4  Z9K D   4      17.419  24.272   8.7930  0.00  0.00     0.000 O
BRANCH 59 63
ATOM     60  C1  Z9K D   4      15.807  20.937   7.4790  0.00  0.00     0.000 C
ATOM     61  C2  Z9K D   4      16.935  21.158   6.4350  0.00  0.00     0.000 C
ATOM     62  C3  Z9K D   4      17.698  22.400   7.0720  0.00  0.00     0.000 C
ATOM     63  C4  Z9K D   4      16.859  23.618   7.6180  0.00  0.00     0.000 C
ATOM     64  C5  Z9K D   4      15.425  23.301   8.0700  0.00  0.00     0.000 C
ATOM     65  O5  Z9K D   4      15.537  21.941   8.5670  0.00  0.00     0.000 O
ATOM     66   O  Z9K D   4      18.668  22.986   6.1870  0.00  0.00     0.000 O
ATOM     67   C  Z9K D   4      19.942  22.364   6.2180  0.00  0.00     0.000 C
BRANCH 61 68
ATOM     68   O  Z9K D   4      17.808  20.066   6.5360  0.00  0.00     0.000 O
ATOM     69   O  Z9K D   4      17.637  20.894   4.1200  0.00  0.00     0.000 OA
ATOM     70   S  Z9K D   4      17.213  19.882   5.0410  0.00  0.00     0.000 S
ATOM     71   O  Z9K D   4      15.896  19.329   5.1280  0.00  0.00     0.000 OA
ATOM     72   O  Z9K D   4      18.176  18.831   5.1200  0.00  0.00     0.000 OA
ENDBRANCH 61 68
BRANCH 64 73
ATOM     73   C  Z9K D   4      14.894  24.396   9.0190  0.00  0.00     0.000 C
ATOM     74   O  Z9K D   4      14.736  24.173  10.2540  0.00  0.00     0.000 O
ATOM     75   O  Z9K D   4      14.606  25.546   8.6060  0.00  0.00     0.000 OA
ENDBRANCH 64 73
BRANCH 60 76
ATOM     76  O4  Z9L D   5      14.418  20.645   7.2470  0.00  0.00     0.000 O
BRANCH 76 80
ATOM     77  C1  Z9L D   5      11.283  18.554   8.5770  0.00  0.00     0.000 C
ATOM     78  C2  Z9L D   5      10.913  20.107   8.7350  0.00  0.00     0.000 C
ATOM     79  C3  Z9L D   5      12.006  20.967   7.7720  0.00  0.00     0.000 C
ATOM     80  C4  Z9L D   5      13.412  20.176   8.1080  0.00  0.00     0.000 C
ATOM     81  C5  Z9L D   5      13.744  18.600   8.1790  0.00  0.00     0.000 C
ATOM     82  O5  Z9L D   5      12.628  17.981   8.8360  0.00  0.00     0.000 O
ATOM     83   C  Z9L D   5      11.078  16.720   7.0010  0.00  0.00     0.000 C
ATOM     84   C  Z9L D   5      11.078  16.720   7.0010  0.00  0.00     0.000 C
BRANCH 78 85
ATOM     85   O  Z9L D   5       9.625  20.296   8.2430  0.00  0.00     0.000 O
ATOM     86   O  Z9L D   5       8.084  20.731   9.3140  0.00  0.00     0.000 OA
ATOM     87   S  Z9L D   5       9.430  20.660   9.7970  0.00  0.00     0.000 S
ATOM     88   O  Z9L D   5       9.783  22.019  10.1240  0.00  0.00     0.000 OA
ATOM     89   O  Z9L D   5       9.443  19.568  10.7090  0.00  0.00     0.000 OA
ENDBRANCH 78 85
BRANCH 79 90
ATOM     90   O  Z9L D   5      12.244  22.238   8.2870  0.00  0.00     0.000 O
ATOM     91   S  Z9L D   5      11.813  22.627   6.8030  0.00  0.00     0.000 S
ATOM     92   O  Z9L D   5      10.556  22.218   6.2340  0.00  0.00     0.000 OA
ATOM     93   O  Z9L D   5      12.992  22.757   5.9830  0.00  0.00     0.000 O
ATOM     94   O  Z9L D   5      11.600  23.887   7.4380  0.00  0.00     0.000 OA
ENDBRANCH 79 90
BRANCH 81 95
ATOM     95   C  Z9L D   5      15.293  18.160   8.6490  0.00  0.00     0.000 C
ATOM     96   S  Z9L D   5      16.557  16.636   8.8610  0.00  0.00     0.000 S
ATOM     97   O  Z9L D   5      15.009  16.849   9.0550  0.00  0.00     0.000 O
ATOM     98   O  Z9L D   5      17.208  17.319   9.9500  0.00  0.00     0.000 OA
ATOM     99   O  Z9L D   5      17.035  16.748   7.5250  0.00  0.00     0.000 OA
ATOM    100   O  Z9L D   5      16.207  15.308   9.3010  0.00  0.00     0.000 O
ENDBRANCH 81 95
ENDBRANCH 76 80
ENDBRANCH 60 76
ENDBRANCH 59 63
ENDBRANCH 37 59
ENDBRANCH 36 40
ENDBRANCH 23 36
ENDBRANCH 22 26
ENDBRANCH 1 22
TORSDOF 19
ENDMDL
MODEL 7
REMARK VINA RESULT:      -5.1      7.109     14.854
ROOT
ATOM      1  C1  Z9H D   1      19.888  26.800   7.1180  0.00  0.00     0.000 C
ATOM      2  C2  Z9H D   1      20.569  25.411   7.1410  0.00  0.00     0.000 C
ATOM      3  C3  Z9H D   1      21.789  25.746   6.2300  0.00  0.00     0.000 C
ATOM      4  C4  Z9H D   1      21.437  26.452   4.8550  0.00  0.00     0.000 C
ATOM      5  C5  Z9H D   1      20.455  27.685   4.7440  0.00  0.00     0.000 C
ATOM      6  O5  Z9H D   1      19.555  27.436   5.8530  0.00  0.00     0.000 O
ATOM      7   O  Z9H D   1      22.608  24.597   6.0030  0.00  0.00     0.000 O
ATOM      8   C  Z9H D   1      23.774  24.498   6.8370  0.00  0.00     0.000 C
ATOM      9   O  Z9H D   1      22.690  26.857   4.2940  0.00  0.00     0.000 O
ATOM     10   C  Z9H D   1      23.226  25.990   3.2900  0.00  0.00     0.000 C
ENDROOT
BRANCH 2 11
ATOM     11   O  Z9H D   1      21.088  25.362   8.4440  0.00  0.00     0.000 O
ATOM     12   O  Z9H D   1      20.479  24.181   9.7830  0.00  0.00     0.000 OA
ATOM     13   S  Z9H D   1      19.995  24.209   8.4450  0.00  0.00     0.000 S
ATOM     14   O  Z9H D   1      20.477  23.130   7.6300  0.00  0.00     0.000 OA
ATOM     15   O  Z9H D   1      18.654  24.746   8.4050  0.00  0.00     0.000 O
ENDBRANCH 2 11
BRANCH 5 16
ATOM     16   C  Z9H D   1      19.875  27.992   3.2040  0.00  0.00     0.000 C
ATOM     17   S  Z9H D   1      19.464  29.445   1.8770  0.00  0.00     0.000 S
ATOM     18   O  Z9H D   1      20.645  29.138   2.9340  0.00  0.00     0.000 O
ATOM     19   O  Z9H D   1      18.194  29.756   2.4670  0.00  0.00     0.000 O
ATOM     20   O  Z9H D   1      19.609  28.622   0.7270  0.00  0.00     0.000 OA
ATOM     21   O  Z9H D   1      20.265  30.617   1.6800  0.00  0.00     0.000 OA
ENDBRANCH 5 16
BRANCH 1 22
ATOM     22  O4  GU1 D   2      20.659  27.878   7.7640  0.00  0.00     0.000 O
BRANCH 22 26
ATOM     23  C1  GU1 D   2      20.404  31.322  10.0100  0.00  0.00     0.000 C
ATOM     24  C2  GU1 D   2      19.360  30.265  10.3390  0.00  0.00     0.000 C
ATOM     25  C3  GU1 D   2      19.781  28.950   9.7500  0.00  0.00     0.000 C
ATOM     26  C4  GU1 D   2      20.082  29.089   8.2650  0.00  0.00     0.000 C
ATOM     27  C5  GU1 D   2      21.061  30.244   8.0340  0.00  0.00     0.000 C
ATOM     28  O5  GU1 D   2      20.553  31.449   8.6010  0.00  0.00     0.000 O
ATOM     29   O  GU1 D   2      19.199  30.094  11.7420  0.00  0.00     0.000 O
ATOM     30   C  GU1 D   2      18.111  30.825  12.2890  0.00  0.00     0.000 C
ATOM     31   C  GU1 D   2      18.885  27.082  10.9760  0.00  0.00     0.000 C
ATOM     32   O  GU1 D   2      18.708  28.017   9.9150  0.00  0.00     0.000 O
BRANCH 27 33
ATOM     33   C  GU1 D   2      21.285  30.485   6.5600  0.00  0.00     0.000 C
ATOM     34   O  GU1 D   2      20.373  30.948   5.9060  0.00  0.00     0.000 OA
ATOM     35   O  GU1 D   2      22.360  30.222   6.0450  0.00  0.00     0.000 O
ENDBRANCH 27 33
BRANCH 23 36
ATOM     36  O4  GU6 D   3      20.120  32.715  10.2480  0.00  0.00     0.000 O
BRANCH 36 40
ATOM     37  C1  GU6 D   3      18.395  36.361  10.8950  0.00  0.00     0.000 C
ATOM     38  C2  GU6 D   3      19.370  36.337   9.7250  0.00  0.00     0.000 C
ATOM     39  C3  GU6 D   3      19.736  34.912   9.4010  0.00  0.00     0.000 C
ATOM     40  C4  GU6 D   3      19.311  33.870  10.3420  0.00  0.00     0.000 C
ATOM     41  C5  GU6 D   3      19.439  34.404  11.8070  0.00  0.00     0.000 C
ATOM     42  O5  GU6 D   3      19.020  35.757  12.0170  0.00  0.00     0.000 O
BRANCH 38 43
ATOM     43   O  GU6 D   3      18.800  36.959   8.5890  0.00  0.00     0.000 O
ATOM     44   S  GU6 D   3      19.143  38.435   8.4410  0.00  0.00     0.000 S
ATOM     45   O  GU6 D   3      18.245  39.215   9.3100  0.00  0.00     0.000 OA
ATOM     46   O  GU6 D   3      20.538  38.639   8.8700  0.00  0.00     0.000 O
ATOM     47   O  GU6 D   3      18.990  38.816   7.0400  0.00  0.00     0.000 OA
ENDBRANCH 38 43
BRANCH 39 48
ATOM     48   O  GU6 D   3      20.259  34.566   8.1330  0.00  0.00     0.000 O
ATOM     49   S  GU6 D   3      21.680  34.703   7.5880  0.00  0.00     0.000 S
ATOM     50   O  GU6 D   3      22.630  34.022   8.4760  0.00  0.00     0.000 OA
ATOM     51   O  GU6 D   3      21.602  34.035   6.2820  0.00  0.00     0.000 OA
ATOM     52   O  GU6 D   3      22.020  36.140   7.4900  0.00  0.00     0.000 O
ENDBRANCH 39 48
BRANCH 41 53
ATOM     53   C  GU6 D   3      19.929  33.688  13.0370  0.00  0.00     0.000 C
ATOM     54   O  GU6 D   3      19.649  34.699  13.9700  0.00  0.00     0.000 O
ATOM     55   S  GU6 D   3      20.067  34.541  15.4380  0.00  0.00     0.000 S
ATOM     56   O  GU6 D   3      21.548  34.541  15.4630  0.00  0.00     0.000 O
ATOM     57   O  GU6 D   3      19.534  35.679  16.2020  0.00  0.00     0.000 OA
ATOM     58   O  GU6 D   3      19.526  33.247  15.9120  0.00  0.00     0.000 OA
ENDBRANCH 41 53
BRANCH 37 59
ATOM     59  O4  Z9K D   4      17.035  35.881  10.8510  0.00  0.00     0.000 O
BRANCH 59 63
ATOM     60  C1  Z9K D   4      13.408  35.704  12.3550  0.00  0.00     0.000 C
ATOM     61  C2  Z9K D   4      14.248  36.003  13.6280  0.00  0.00     0.000 C
ATOM     62  C3  Z9K D   4      15.682  36.255  12.9900  0.00  0.00     0.000 C
ATOM     63  C4  Z9K D   4      16.219  35.264  11.8880  0.00  0.00     0.000 C
ATOM     64  C5  Z9K D   4      15.150  34.524  11.0690  0.00  0.00     0.000 C
ATOM     65  O5  Z9K D   4      14.062  35.483  11.0180  0.00  0.00     0.000 O
ATOM     66   O  Z9K D   4      16.735  36.325  13.9690  0.00  0.00     0.000 O
ATOM     67   C  Z9K D   4      16.917  37.608  14.5440  0.00  0.00     0.000 C
BRANCH 61 68
ATOM     68   O  Z9K D   4      13.815  37.239  14.1250  0.00  0.00     0.000 O
ATOM     69   O  Z9K D   4      14.610  35.708  16.0150  0.00  0.00     0.000 OA
ATOM     70   S  Z9K D   4      13.459  36.242  15.3510  0.00  0.00     0.000 S
ATOM     71   O  Z9K D   4      12.267  35.518  15.0320  0.00  0.00     0.000 OA
ATOM     72   O  Z9K D   4      13.111  37.519  15.8840  0.00  0.00     0.000 OA
ENDBRANCH 61 68
BRANCH 64 73
ATOM     73   C  Z9K D   4      15.740  34.000   9.7430  0.00  0.00     0.000 C
ATOM     74   O  Z9K D   4      15.564  34.623   8.6560  0.00  0.00     0.000 O
ATOM     75   O  Z9K D   4      16.420  32.946   9.6920  0.00  0.00     0.000 OA
ENDBRANCH 64 73
BRANCH 60 76
ATOM     76  O4  Z9L D   5      12.407  34.690  12.1610  0.00  0.00     0.000 O
BRANCH 76 80
ATOM     77  C1  Z9L D   5       8.708  33.963  10.8340  0.00  0.00     0.000 C
ATOM     78  C2  Z9L D   5       9.719  33.204   9.8480  0.00  0.00     0.000 C
ATOM     79  C3  Z9L D   5      11.207  33.120  10.6470  0.00  0.00     0.000 C
ATOM     80  C4  Z9L D   5      11.301  34.631  11.2970  0.00  0.00     0.000 C
ATOM     81  C5  Z9L D   5      10.207  35.504  12.0980  0.00  0.00     0.000 C
ATOM     82  O5  Z9L D   5       8.957  35.304  11.4220  0.00  0.00     0.000 O
ATOM     83   C  Z9L D   5       7.413  33.593  12.8540  0.00  0.00     0.000 C
ATOM     84   C  Z9L D   5       7.413  33.593  12.8540  0.00  0.00     0.000 C
BRANCH 78 85
ATOM     85   O  Z9L D   5       9.237  31.914   9.6450  0.00  0.00     0.000 O
ATOM     86   O  Z9L D   5       8.518  31.248   7.9860  0.00  0.00     0.000 OA
ATOM     87   S  Z9L D   5       9.129  32.531   8.1650  0.00  0.00     0.000 S
ATOM     88   O  Z9L D   5      10.360  32.466   7.4170  0.00  0.00     0.000 OA
ATOM     89   O  Z9L D   5       8.087  33.475   7.9470  0.00  0.00     0.000 OA
ENDBRANCH 78 85
BRANCH 79 90
ATOM     90   O  Z9L D   5      12.268  33.113   9.7450  0.00  0.00     0.000 O
ATOM     91   S  Z9L D   5      12.515  31.711  10.4590  0.00  0.00     0.000 S
ATOM     92   O  Z9L D   5      11.506  30.686  10.5140  0.00  0.00     0.000 OA
ATOM     93   O  Z9L D   5      13.456  31.884  11.5370  0.00  0.00     0.000 O
ATOM     94   O  Z9L D   5      13.272  31.495   9.2690  0.00  0.00     0.000 OA
ENDBRANCH 79 90
BRANCH 81 95
ATOM     95   C  Z9L D   5      10.639  37.065  12.5360  0.00  0.00     0.000 C
ATOM     96   S  Z9L D   5      10.263  38.998  12.2420  0.00  0.00     0.000 S
ATOM     97   O  Z9L D   5      10.284  37.707  11.3410  0.00  0.00     0.000 O
ATOM     98   O  Z9L D   5      11.636  39.318  12.5410  0.00  0.00     0.000 OA
ATOM     99   O  Z9L D   5       9.258  39.034  13.2500  0.00  0.00     0.000 OA
ATOM    100   O  Z9L D   5       9.918  39.607  10.9810  0.00  0.00     0.000 O
ENDBRANCH 81 95
ENDBRANCH 76 80
ENDBRANCH 60 76
ENDBRANCH 59 63
ENDBRANCH 37 59
ENDBRANCH 36 40
ENDBRANCH 23 36
ENDBRANCH 22 26
ENDBRANCH 1 22
TORSDOF 19
ENDMDL
MODEL 8
REMARK VINA RESULT:      -5.0     18.965     25.914
ROOT
ATOM      1  C1  Z9H D   1      15.830  47.684   6.1700  0.00  0.00     0.000 C
ATOM      2  C2  Z9H D   1      17.334  47.882   5.8640  0.00  0.00     0.000 C
ATOM      3  C3  Z9H D   1      17.466  49.360   6.3440  0.00  0.00     0.000 C
ATOM      4  C4  Z9H D   1      16.384  50.362   5.7630  0.00  0.00     0.000 C
ATOM      5  C5  Z9H D   1      14.836  50.044   5.7410  0.00  0.00     0.000 C
ATOM      6  O5  Z9H D   1      14.841  48.599   5.6220  0.00  0.00     0.000 O
ATOM      7   O  Z9H D   1      18.783  49.869   6.1250  0.00  0.00     0.000 O
ATOM      8   C  Z9H D   1      19.651  49.846   7.2700  0.00  0.00     0.000 C
ATOM      9   O  Z9H D   1      16.555  51.583   6.4900  0.00  0.00     0.000 O
ATOM     10   C  Z9H D   1      17.314  52.597   5.8250  0.00  0.00     0.000 C
ENDROOT
BRANCH 2 11
ATOM     11   O  Z9H D   1      17.940  47.115   6.8720  0.00  0.00     0.000 O
ATOM     12   O  Z9H D   1      18.957  45.559   6.5520  0.00  0.00     0.000 OA
ATOM     13   S  Z9H D   1      18.377  46.373   5.5370  0.00  0.00     0.000 S
ATOM     14   O  Z9H D   1      19.324  47.203   4.8480  0.00  0.00     0.000 OA
ATOM     15   O  Z9H D   1      17.265  45.689   4.9180  0.00  0.00     0.000 O
ENDBRANCH 2 11
BRANCH 5 16
ATOM     16   C  Z9H D   1      13.930  51.000   4.7080  0.00  0.00     0.000 C
ATOM     17   S  Z9H D   1      12.070  51.628   4.2800  0.00  0.00     0.000 S
ATOM     18   O  Z9H D   1      12.929  51.376   5.6230  0.00  0.00     0.000 O
ATOM     19   O  Z9H D   1      11.735  50.440   3.5480  0.00  0.00     0.000 O
ATOM     20   O  Z9H D   1      12.476  52.839   3.6570  0.00  0.00     0.000 OA
ATOM     21   O  Z9H D   1      11.074  51.952   5.2600  0.00  0.00     0.000 OA
ENDBRANCH 5 16
BRANCH 1 22
ATOM     22  O4  GU1 D   2      15.477  47.733   7.6000  0.00  0.00     0.000 O
BRANCH 22 26
ATOM     23  C1  GU1 D   2      13.170  46.030  10.5570  0.00  0.00     0.000 C
ATOM     24  C2  GU1 D   2      13.667  45.061   9.4950  0.00  0.00     0.000 C
ATOM     25  C3  GU1 D   2      14.780  45.702   8.7180  0.00  0.00     0.000 C
ATOM     26  C4  GU1 D   2      14.353  47.057   8.1740  0.00  0.00     0.000 C
ATOM     27  C5  GU1 D   2      13.772  47.916   9.3010  0.00  0.00     0.000 C
ATOM     28  O5  GU1 D   2      12.705  47.231   9.9510  0.00  0.00     0.000 O
ATOM     29   O  GU1 D   2      14.161  43.854  10.0650  0.00  0.00     0.000 O
ATOM     30   C  GU1 D   2      13.214  42.795  10.0770  0.00  0.00     0.000 C
ATOM     31   C  GU1 D   2      16.294  44.074   7.7950  0.00  0.00     0.000 C
ATOM     32   O  GU1 D   2      15.111  44.850   7.6170  0.00  0.00     0.000 O
BRANCH 27 33
ATOM     33   C  GU1 D   2      13.229  49.221   8.7700  0.00  0.00     0.000 C
ATOM     34   O  GU1 D   2      12.242  49.191   8.0630  0.00  0.00     0.000 OA
ATOM     35   O  GU1 D   2      13.770  50.279   9.0510  0.00  0.00     0.000 O
ENDBRANCH 27 33
BRANCH 23 36
ATOM     36  O4  GU6 D   3      11.949  45.753  11.2710  0.00  0.00     0.000 O
BRANCH 36 40
ATOM     37  C1  GU6 D   3       8.197  45.873  12.8850  0.00  0.00     0.000 C
ATOM     38  C2  GU6 D   3       9.080  47.050  13.2820  0.00  0.00     0.000 C
ATOM     39  C3  GU6 D   3      10.324  47.057  12.4330  0.00  0.00     0.000 C
ATOM     40  C4  GU6 D   3      10.578  45.887  11.5870  0.00  0.00     0.000 C
ATOM     41  C5  GU6 D   3      10.151  44.588  12.3480  0.00  0.00     0.000 C
ATOM     42  O5  GU6 D   3       8.927  44.672  13.0870  0.00  0.00     0.000 O
BRANCH 38 43
ATOM     43   O  GU6 D   3       8.381  48.270  13.1260  0.00  0.00     0.000 O
ATOM     44   S  GU6 D   3       7.759  48.807  14.4090  0.00  0.00     0.000 S
ATOM     45   O  GU6 D   3       6.480  48.112  14.6350  0.00  0.00     0.000 OA
ATOM     46   O  GU6 D   3       8.674  48.526  15.5300  0.00  0.00     0.000 O
ATOM     47   O  GU6 D   3       7.565  50.247  14.2700  0.00  0.00     0.000 OA
ENDBRANCH 38 43
BRANCH 39 48
ATOM     48   O  GU6 D   3      11.091  48.236  12.2800  0.00  0.00     0.000 O
ATOM     49   S  GU6 D   3      12.149  48.845  13.2000  0.00  0.00     0.000 S
ATOM     50   O  GU6 D   3      13.202  47.862  13.4790  0.00  0.00     0.000 OA
ATOM     51   O  GU6 D   3      12.668  49.970  12.4110  0.00  0.00     0.000 OA
ATOM     52   O  GU6 D   3      11.501  49.266  14.4620  0.00  0.00     0.000 O
ENDBRANCH 39 48
BRANCH 41 53
ATOM     53   C  GU6 D   3      10.839  43.251  12.4010  0.00  0.00     0.000 C
ATOM     54   O  GU6 D   3       9.707  42.464  12.6680  0.00  0.00     0.000 O
ATOM     55   S  GU6 D   3       9.851  40.961  12.9410  0.00  0.00     0.000 S
ATOM     56   O  GU6 D   3      10.592  40.828  14.2170  0.00  0.00     0.000 O
ATOM     57   O  GU6 D   3       8.508  40.375  13.0570  0.00  0.00     0.000 OA
ATOM     58   O  GU6 D   3      10.619  40.382  11.8170  0.00  0.00     0.000 OA
ENDBRANCH 41 53
BRANCH 37 59
ATOM     59  O4  Z9K D   4       7.502  45.746  11.6270  0.00  0.00     0.000 O
BRANCH 59 63
ATOM     60  C1  Z9K D   4       4.895  45.871   8.6890  0.00  0.00     0.000 C
ATOM     61  C2  Z9K D   4       4.532  47.165   9.4680  0.00  0.00     0.000 C
ATOM     62  C3  Z9K D   4       5.703  47.207  10.5430  0.00  0.00     0.000 C
ATOM     63  C4  Z9K D   4       6.086  45.887  11.3140  0.00  0.00     0.000 C
ATOM     64  C5  Z9K D   4       5.778  44.568  10.5870  0.00  0.00     0.000 C
ATOM     65  O5  Z9K D   4       5.950  44.923   9.1900  0.00  0.00     0.000 O
ATOM     66   O  Z9K D   4       5.492  48.189  11.5740  0.00  0.00     0.000 O
ATOM     67   C  Z9K D   4       5.937  49.493  11.2410  0.00  0.00     0.000 C
BRANCH 61 68
ATOM     68   O  Z9K D   4       4.755  48.243   8.6010  0.00  0.00     0.000 O
ATOM     69   O  Z9K D   4       2.845  48.744  10.2290  0.00  0.00     0.000 OA
ATOM     70   S  Z9K D   4       3.165  48.366   8.8860  0.00  0.00     0.000 S
ATOM     71   O  Z9K D   4       2.475  47.383   8.1070  0.00  0.00     0.000 OA
ATOM     72   O  Z9K D   4       3.422  49.515   8.0800  0.00  0.00     0.000 OA
ENDBRANCH 61 68
BRANCH 64 73
ATOM     73   C  Z9K D   4       6.618  43.412  11.1680  0.00  0.00     0.000 C
ATOM     74   O  Z9K D   4       7.585  42.914  10.5200  0.00  0.00     0.000 O
ATOM     75   O  Z9K D   4       6.382  42.927  12.3020  0.00  0.00     0.000 OA
ENDBRANCH 64 73
BRANCH 60 76
ATOM     76  O4  Z9L D   5       4.017  44.830   8.2260  0.00  0.00     0.000 O
BRANCH 76 80
ATOM     77  C1  Z9L D   5       2.992  42.572   5.0920  0.00  0.00     0.000 C
ATOM     78  C2  Z9L D   5       3.640  41.593   6.1840  0.00  0.00     0.000 C
ATOM     79  C3  Z9L D   5       3.646  42.436   7.6500  0.00  0.00     0.000 C
ATOM     80  C4  Z9L D   5       4.128  43.931   7.1520  0.00  0.00     0.000 C
ATOM     81  C5  Z9L D   5       3.642  44.836   5.9100  0.00  0.00     0.000 C
ATOM     82  O5  Z9L D   5       3.482  43.943   4.7980  0.00  0.00     0.000 O
ATOM     83   C  Z9L D   5       0.842  43.458   4.3970  0.00  0.00     0.000 C
ATOM     84   C  Z9L D   5       0.842  43.458   4.3970  0.00  0.00     0.000 C
BRANCH 78 85
ATOM     85   O  Z9L D   5       2.819  40.475   6.3040  0.00  0.00     0.000 O
ATOM     86   O  Z9L D   5       3.301  38.686   5.7770  0.00  0.00     0.000 OA
ATOM     87   S  Z9L D   5       4.184  39.813   5.7720  0.00  0.00     0.000 S
ATOM     88   O  Z9L D   5       5.143  39.541   6.8150  0.00  0.00     0.000 OA
ATOM     89   O  Z9L D   5       4.503  40.033   4.4040  0.00  0.00     0.000 OA
ENDBRANCH 78 85
BRANCH 79 90
ATOM     90   O  Z9L D   5       4.702  42.033   8.4630  0.00  0.00     0.000 O
ATOM     91   S  Z9L D   5       3.477  41.659   9.4100  0.00  0.00     0.000 S
ATOM     92   O  Z9L D   5       2.416  40.784   8.9870  0.00  0.00     0.000 OA
ATOM     93   O  Z9L D   5       3.221  42.752  10.3140  0.00  0.00     0.000 O
ATOM     94   O  Z9L D   5       4.484  40.843  10.0090  0.00  0.00     0.000 OA
ENDBRANCH 79 90
BRANCH 81 95
ATOM     95   C  Z9L D   5       4.440  46.290   5.6580  0.00  0.00     0.000 C
ATOM     96   S  Z9L D   5       4.907  47.676   4.3060  0.00  0.00     0.000 S
ATOM     97   O  Z9L D   5       4.753  46.108   4.3030  0.00  0.00     0.000 O
ATOM     98   O  Z9L D   5       6.124  47.971   5.0190  0.00  0.00     0.000 OA
ATOM     99   O  Z9L D   5       3.713  48.415   4.5400  0.00  0.00     0.000 OA
ATOM    100   O  Z9L D   5       5.238  47.426   2.9250  0.00  0.00     0.000 O
ENDBRANCH 81 95
ENDBRANCH 76 80
ENDBRANCH 60 76
ENDBRANCH 59 63
ENDBRANCH 37 59
ENDBRANCH 36 40
ENDBRANCH 23 36
ENDBRANCH 22 26
ENDBRANCH 1 22
TORSDOF 19
ENDMDL
MODEL 9
REMARK VINA RESULT:      -5.0     14.064     21.046
ROOT
ATOM      1  C1  Z9H D   1      24.275  36.755   5.9600  0.00  0.00     0.000 C
ATOM      2  C2  Z9H D   1      25.692  36.136   5.9260  0.00  0.00     0.000 C
ATOM      3  C3  Z9H D   1      26.463  37.308   6.6090  0.00  0.00     0.000 C
ATOM      4  C4  Z9H D   1      26.193  38.745   6.0000  0.00  0.00     0.000 C
ATOM      5  C5  Z9H D   1      24.743  39.295   5.6910  0.00  0.00     0.000 C
ATOM      6  O5  Z9H D   1      24.030  38.069   5.3860  0.00  0.00     0.000 O
ATOM      7   O  Z9H D   1      27.867  37.049   6.6710  0.00  0.00     0.000 O
ATOM      8   C  Z9H D   1      28.345  36.540   7.9270  0.00  0.00     0.000 C
ATOM      9   O  Z9H D   1      26.813  39.671   6.8980  0.00  0.00     0.000 O
ATOM     10   C  Z9H D   1      28.102  40.148   6.5000  0.00  0.00     0.000 C
ENDROOT
BRANCH 2 11
ATOM     11   O  Z9H D   1      25.599  35.138   6.9080  0.00  0.00     0.000 O
ATOM     12   O  Z9H D   1      25.632  33.287   6.5450  0.00  0.00     0.000 OA
ATOM     13   S  Z9H D   1      25.774  34.310   5.5640  0.00  0.00     0.000 S
ATOM     14   O  Z9H D   1      27.121  34.485   5.0990  0.00  0.00     0.000 OA
ATOM     15   O  Z9H D   1      24.593  34.381   4.7350  0.00  0.00     0.000 O
ENDBRANCH 2 11
BRANCH 5 16
ATOM     16   C  Z9H D   1      24.689  40.613   4.6610  0.00  0.00     0.000 C
ATOM     17   S  Z9H D   1      25.812  41.944   3.6580  0.00  0.00     0.000 S
ATOM     18   O  Z9H D   1      25.885  40.360   3.9640  0.00  0.00     0.000 O
ATOM     19   O  Z9H D   1      26.003  42.788   4.8020  0.00  0.00     0.000 O
ATOM     20   O  Z9H D   1      24.844  42.204   2.6500  0.00  0.00     0.000 OA
ATOM     21   O  Z9H D   1      27.051  41.636   3.0060  0.00  0.00     0.000 OA
ENDBRANCH 5 16
BRANCH 1 22
ATOM     22  O4  GU1 D   2      23.714  36.944   7.3100  0.00  0.00     0.000 O
BRANCH 22 26
ATOM     23  C1  GU1 D   2      20.244  36.962   9.5300  0.00  0.00     0.000 C
ATOM     24  C2  GU1 D   2      20.252  35.985   8.3640  0.00  0.00     0.000 C
ATOM     25  C3  GU1 D   2      21.663  35.794   7.8850  0.00  0.00     0.000 C
ATOM     26  C4  GU1 D   2      22.320  37.132   7.5820  0.00  0.00     0.000 C
ATOM     27  C5  GU1 D   2      22.165  38.075   8.7790  0.00  0.00     0.000 C
ATOM     28  O5  GU1 D   2      20.791  38.213   9.1310  0.00  0.00     0.000 O
ATOM     29   O  GU1 D   2      19.731  34.713   8.7310  0.00  0.00     0.000 O
ATOM     30   C  GU1 D   2      18.361  34.536   8.4020  0.00  0.00     0.000 C
ATOM     31   C  GU1 D   2      21.983  33.645   6.8490  0.00  0.00     0.000 C
ATOM     32   O  GU1 D   2      21.631  35.017   6.6840  0.00  0.00     0.000 O
BRANCH 27 33
ATOM     33   C  GU1 D   2      22.702  39.451   8.4630  0.00  0.00     0.000 C
ATOM     34   O  GU1 D   2      22.058  40.167   7.7240  0.00  0.00     0.000 OA
ATOM     35   O  GU1 D   2      23.757  39.832   8.9460  0.00  0.00     0.000 O
ENDBRANCH 27 33
BRANCH 23 36
ATOM     36  O4  GU6 D   3      18.996  37.501  10.0090  0.00  0.00     0.000 O
BRANCH 36 40
ATOM     37  C1  GU6 D   3      15.942  39.969  11.1390  0.00  0.00     0.000 C
ATOM     38  C2  GU6 D   3      17.278  40.299  11.7920  0.00  0.00     0.000 C
ATOM     39  C3  GU6 D   3      18.377  39.523  11.1150  0.00  0.00     0.000 C
ATOM     40  C4  GU6 D   3      17.985  38.477  10.1630  0.00  0.00     0.000 C
ATOM     41  C5  GU6 D   3      16.710  37.741  10.6910  0.00  0.00     0.000 C
ATOM     42  O5  GU6 D   3      15.704  38.576  11.2750  0.00  0.00     0.000 O
BRANCH 38 43
ATOM     43   O  GU6 D   3      17.543  41.686  11.7080  0.00  0.00     0.000 O
ATOM     44   S  GU6 D   3      17.226  42.466  12.9770  0.00  0.00     0.000 S
ATOM     45   O  GU6 D   3      15.781  42.751  13.0030  0.00  0.00     0.000 OA
ATOM     46   O  GU6 D   3      17.582  41.635  14.1410  0.00  0.00     0.000 O
ATOM     47   O  GU6 D   3      18.012  43.696  12.9820  0.00  0.00     0.000 OA
ENDBRANCH 38 43
BRANCH 39 48
ATOM     48   O  GU6 D   3      19.726  39.939  11.2110  0.00  0.00     0.000 O
ATOM     49   S  GU6 D   3      20.737  39.732  12.3380  0.00  0.00     0.000 S
ATOM     50   O  GU6 D   3      20.864  38.304  12.6490  0.00  0.00     0.000 OA
ATOM     51   O  GU6 D   3      21.983  40.264  11.7690  0.00  0.00     0.000 OA
ATOM     52   O  GU6 D   3      20.279  40.472  13.5350  0.00  0.00     0.000 O
ENDBRANCH 39 48
BRANCH 41 53
ATOM     53   C  GU6 D   3      16.382  36.273  10.6580  0.00  0.00     0.000 C
ATOM     54   O  GU6 D   3      15.094  36.377  10.1080  0.00  0.00     0.000 O
ATOM     55   S  GU6 D   3      14.212  35.132   9.9510  0.00  0.00     0.000 S
ATOM     56   O  GU6 D   3      13.894  34.657  11.3170  0.00  0.00     0.000 O
ATOM     57   O  GU6 D   3      12.986  35.514   9.2350  0.00  0.00     0.000 OA
ATOM     58   O  GU6 D   3      15.002  34.125   9.2080  0.00  0.00     0.000 OA
ENDBRANCH 41 53
BRANCH 37 59
ATOM     59  O4  Z9K D   4      15.561  40.340   9.7970  0.00  0.00     0.000 O
BRANCH 59 63
ATOM     60  C1  Z9K D   4      14.773  44.191   9.7780  0.00  0.00     0.000 C
ATOM     61  C2  Z9K D   4      13.424  43.610  10.2850  0.00  0.00     0.000 C
ATOM     62  C3  Z9K D   4      13.805  42.077  10.4670  0.00  0.00     0.000 C
ATOM     63  C4  Z9K D   4      14.617  41.347   9.3300  0.00  0.00     0.000 C
ATOM     64  C5  Z9K D   4      15.502  42.244   8.4510  0.00  0.00     0.000 C
ATOM     65  O5  Z9K D   4      15.909  43.293   9.3680  0.00  0.00     0.000 O
ATOM     66   O  Z9K D   4      12.666  41.232  10.7080  0.00  0.00     0.000 O
ATOM     67   C  Z9K D   4      12.271  41.154  12.0680  0.00  0.00     0.000 C
BRANCH 61 68
ATOM     68   O  Z9K D   4      13.216  44.119  11.5740  0.00  0.00     0.000 O
ATOM     69   O  Z9K D   4      10.996  43.736  10.3600  0.00  0.00     0.000 OA
ATOM     70   S  Z9K D   4      11.949  44.724  10.7660  0.00  0.00     0.000 S
ATOM     71   O  Z9K D   4      12.386  45.837   9.9800  0.00  0.00     0.000 OA
ATOM     72   O  Z9K D   4      11.696  45.157  12.1020  0.00  0.00     0.000 OA
ENDBRANCH 61 68
BRANCH 64 73
ATOM     73   C  Z9K D   4      16.593  41.414   7.7430  0.00  0.00     0.000 C
ATOM     74   O  Z9K D   4      17.781  41.384   8.1780  0.00  0.00     0.000 O
ATOM     75   O  Z9K D   4      16.345  40.734   6.7160  0.00  0.00     0.000 OA
ENDBRANCH 64 73
BRANCH 60 76
ATOM     76  O4  Z9L D   5      14.997  45.145   8.7250  0.00  0.00     0.000 O
BRANCH 76 80
ATOM     77  C1  Z9L D   5      16.887  48.524   7.7360  0.00  0.00     0.000 C
ATOM     78  C2  Z9L D   5      17.519  47.354   6.8410  0.00  0.00     0.000 C
ATOM     79  C3  Z9L D   5      16.441  46.052   6.9120  0.00  0.00     0.000 C
ATOM     80  C4  Z9L D   5      16.039  46.061   8.5100  0.00  0.00     0.000 C
ATOM     81  C5  Z9L D   5      15.622  47.275   9.4850  0.00  0.00     0.000 C
ATOM     82  O5  Z9L D   5      16.488  48.372   9.1590  0.00  0.00     0.000 O
ATOM     83   C  Z9L D   5      15.127  50.196   7.6820  0.00  0.00     0.000 C
ATOM     84   C  Z9L D   5      15.127  50.196   7.6820  0.00  0.00     0.000 C
BRANCH 78 85
ATOM     85   O  Z9L D   5      17.599  47.809   5.5290  0.00  0.00     0.000 O
ATOM     86   O  Z9L D   5      19.230  48.275   4.6170  0.00  0.00     0.000 OA
ATOM     87   S  Z9L D   5      19.153  47.689   5.9200  0.00  0.00     0.000 S
ATOM     88   O  Z9L D   5      19.691  46.360   5.7650  0.00  0.00     0.000 OA
ATOM     89   O  Z9L D   5      19.661  48.679   6.8060  0.00  0.00     0.000 OA
ENDBRANCH 78 85
BRANCH 79 90
ATOM     90   O  Z9L D   5      17.104  44.836   6.7730  0.00  0.00     0.000 O
ATOM     91   S  Z9L D   5      16.142  44.761   5.5060  0.00  0.00     0.000 S
ATOM     92   O  Z9L D   5      16.124  45.781   4.4910  0.00  0.00     0.000 OA
ATOM     93   O  Z9L D   5      14.941  44.046   5.8610  0.00  0.00     0.000 O
ATOM     94   O  Z9L D   5      17.110  43.790   5.1120  0.00  0.00     0.000 OA
ENDBRANCH 79 90
BRANCH 81 95
ATOM     95   C  Z9L D   5      15.368  46.910  11.1020  0.00  0.00     0.000 C
ATOM     96   S  Z9L D   5      15.078  47.679  12.9170  0.00  0.00     0.000 S
ATOM     97   O  Z9L D   5      15.936  48.067  11.6550  0.00  0.00     0.000 O
ATOM     98   O  Z9L D   5      15.713  46.531  13.5120  0.00  0.00     0.000 OA
ATOM     99   O  Z9L D   5      13.665  47.740  12.7480  0.00  0.00     0.000 OA
ATOM    100   O  Z9L D   5      15.706  48.868  13.4370  0.00  0.00     0.000 O
ENDBRANCH 81 95
ENDBRANCH 76 80
ENDBRANCH 60 76
ENDBRANCH 59 63
ENDBRANCH 37 59
ENDBRANCH 36 40
ENDBRANCH 23 36
ENDBRANCH 22 26
ENDBRANCH 1 22
TORSDOF 19
ENDMDL
MODEL 10
REMARK VINA RESULT:      -5.0      2.947     14.176
ROOT
ATOM      1  C1  Z9H D   1      20.195  25.853   8.4860  0.00  0.00     0.000 C
ATOM      2  C2  Z9H D   1      21.017  27.028   7.9050  0.00  0.00     0.000 C
ATOM      3  C3  Z9H D   1      21.269  26.441   6.4830  0.00  0.00     0.000 C
ATOM      4  C4  Z9H D   1      21.836  24.962   6.4490  0.00  0.00     0.000 C
ATOM      5  C5  Z9H D   1      21.228  23.783   7.3080  0.00  0.00     0.000 C
ATOM      6  O5  Z9H D   1      20.727  24.500   8.4650  0.00  0.00     0.000 O
ATOM      7   O  Z9H D   1      22.089  27.306   5.6940  0.00  0.00     0.000 O
ATOM      8   C  Z9H D   1      21.382  28.156   4.7760  0.00  0.00     0.000 C
ATOM      9   O  Z9H D   1      21.783  24.557   5.0770  0.00  0.00     0.000 O
ATOM     10   C  Z9H D   1      23.015  24.654   4.3560  0.00  0.00     0.000 C
ENDROOT
BRANCH 2 11
ATOM     11   O  Z9H D   1      20.033  28.013   7.7260  0.00  0.00     0.000 O
ATOM     12   O  Z9H D   1      19.991  29.651   8.6600  0.00  0.00     0.000 OA
ATOM     13   S  Z9H D   1      21.009  28.665   8.7970  0.00  0.00     0.000 S
ATOM     14   O  Z9H D   1      22.238  29.004   8.1400  0.00  0.00     0.000 OA
ATOM     15   O  Z9H D   1      20.906  28.010  10.0810  0.00  0.00     0.000 O
ENDBRANCH 2 11
BRANCH 5 16
ATOM     16   C  Z9H D   1      22.217  22.444   7.4740  0.00  0.00     0.000 C
ATOM     17   S  Z9H D   1      22.251  20.434   7.4810  0.00  0.00     0.000 S
ATOM     18   O  Z9H D   1      21.516  21.579   6.6130  0.00  0.00     0.000 O
ATOM     19   O  Z9H D   1      21.813  20.336   8.8440  0.00  0.00     0.000 O
ATOM     20   O  Z9H D   1      23.613  20.321   7.0910  0.00  0.00     0.000 OA
ATOM     21   O  Z9H D   1      21.476  19.603   6.6070  0.00  0.00     0.000 OA
ENDBRANCH 5 16
BRANCH 1 22
ATOM     22  O4  GU1 D   2      18.886  25.636   7.8440  0.00  0.00     0.000 O
BRANCH 22 26
ATOM     23  C1  GU1 D   2      14.933  24.681   8.5000  0.00  0.00     0.000 C
ATOM     24  C2  GU1 D   2      15.587  25.493   9.6070  0.00  0.00     0.000 C
ATOM     25  C3  GU1 D   2      16.864  26.094   9.0960  0.00  0.00     0.000 C
ATOM     26  C4  GU1 D   2      17.764  25.025   8.4910  0.00  0.00     0.000 C
ATOM     27  C5  GU1 D   2      16.982  24.199   7.4660  0.00  0.00     0.000 C
ATOM     28  O5  GU1 D   2      15.809  23.649   8.0600  0.00  0.00     0.000 O
ATOM     29   O  GU1 D   2      14.749  26.550  10.0580  0.00  0.00     0.000 O
ATOM     30   C  GU1 D   2      14.001  26.232  11.2240  0.00  0.00     0.000 C
ATOM     31   C  GU1 D   2      17.440  28.121  10.2580  0.00  0.00     0.000 C
ATOM     32   O  GU1 D   2      17.550  26.701  10.1950  0.00  0.00     0.000 O
BRANCH 27 33
ATOM     33   C  GU1 D   2      17.813  23.055   6.9370  0.00  0.00     0.000 C
ATOM     34   O  GU1 D   2      18.061  22.128   7.6820  0.00  0.00     0.000 OA
ATOM     35   O  GU1 D   2      18.221  23.063   5.7860  0.00  0.00     0.000 O
ENDBRANCH 27 33
BRANCH 23 36
ATOM     36  O4  GU6 D   3      13.828  23.806   8.8040  0.00  0.00     0.000 O
BRANCH 36 40
ATOM     37  C1  GU6 D   3      10.490  21.451   8.7600  0.00  0.00     0.000 C
ATOM     38  C2  GU6 D   3      10.353  22.703   9.6180  0.00  0.00     0.000 C
ATOM     39  C3  GU6 D   3      11.513  23.626   9.3530  0.00  0.00     0.000 C
ATOM     40  C4  GU6 D   3      12.626  23.108   8.5490  0.00  0.00     0.000 C
ATOM     41  C5  GU6 D   3      12.879  21.607   8.9110  0.00  0.00     0.000 C
ATOM     42  O5  GU6 D   3      11.707  20.804   9.0950  0.00  0.00     0.000 O
BRANCH 38 43
ATOM     43   O  GU6 D   3       9.135  23.366   9.3390  0.00  0.00     0.000 O
ATOM     44   S  GU6 D   3       8.099  23.275  10.4520  0.00  0.00     0.000 S
ATOM     45   O  GU6 D   3       7.409  21.978  10.3440  0.00  0.00     0.000 OA
ATOM     46   O  GU6 D   3       8.795  23.354  11.7490  0.00  0.00     0.000 O
ATOM     47   O  GU6 D   3       7.165  24.388  10.3170  0.00  0.00     0.000 OA
ENDBRANCH 38 43
BRANCH 39 48
ATOM     48   O  GU6 D   3      11.432  25.003   9.6650  0.00  0.00     0.000 O
ATOM     49   S  GU6 D   3      11.083  26.193   8.7710  0.00  0.00     0.000 S
ATOM     50   O  GU6 D   3       9.782  25.976   8.1270  0.00  0.00     0.000 OA
ATOM     51   O  GU6 D   3      11.027  27.315   9.7170  0.00  0.00     0.000 OA
ATOM     52   O  GU6 D   3      12.137  26.346   7.7440  0.00  0.00     0.000 O
ENDBRANCH 39 48
BRANCH 41 53
ATOM     53   C  GU6 D   3      14.185  20.880   9.0790  0.00  0.00     0.000 C
ATOM     54   O  GU6 D   3      13.927  19.818   8.1980  0.00  0.00     0.000 O
ATOM     55   S  GU6 D   3      14.927  18.662   8.0580  0.00  0.00     0.000 S
ATOM     56   O  GU6 D   3      14.943  17.951   9.3570  0.00  0.00     0.000 O
ATOM     57   O  GU6 D   3      14.466  17.771   6.9830  0.00  0.00     0.000 OA
ATOM     58   O  GU6 D   3      16.249  19.259   7.7620  0.00  0.00     0.000 OA
ENDBRANCH 41 53
BRANCH 37 59
ATOM     59  O4  Z9K D   4      10.366  21.414   7.3220  0.00  0.00     0.000 O
BRANCH 59 63
ATOM     60  C1  Z9K D   4       6.864  19.728   6.7410  0.00  0.00     0.000 C
ATOM     61  C2  Z9K D   4       7.800  18.488   6.7340  0.00  0.00     0.000 C
ATOM     62  C3  Z9K D   4       9.183  19.152   7.1520  0.00  0.00     0.000 C
ATOM     63  C4  Z9K D   4       9.628  20.498   6.4630  0.00  0.00     0.000 C
ATOM     64  C5  Z9K D   4       8.495  21.389   5.9290  0.00  0.00     0.000 C
ATOM     65  O5  Z9K D   4       7.412  21.124   6.8580  0.00  0.00     0.000 O
ATOM     66   O  Z9K D   4      10.308  18.268   6.9970  0.00  0.00     0.000 O
ATOM     67   C  Z9K D   4      10.540  17.415   8.1060  0.00  0.00     0.000 C
BRANCH 61 68
ATOM     68   O  Z9K D   4       7.413  17.675   7.8080  0.00  0.00     0.000 O
ATOM     69   O  Z9K D   4       8.305  16.274   5.8610  0.00  0.00     0.000 OA
ATOM     70   S  Z9K D   4       7.122  16.713   6.5380  0.00  0.00     0.000 S
ATOM     71   O  Z9K D   4       5.904  17.125   5.9110  0.00  0.00     0.000 OA
ATOM     72   O  Z9K D   4       6.823  15.861   7.6440  0.00  0.00     0.000 OA
ENDBRANCH 61 68
BRANCH 64 73
ATOM     73   C  Z9K D   4       8.980  22.843   5.7480  0.00  0.00     0.000 C
ATOM     74   O  Z9K D   4       8.338  23.814   6.2450  0.00  0.00     0.000 O
ATOM     75   O  Z9K D   4      10.025  23.117   5.1100  0.00  0.00     0.000 OA
ENDBRANCH 64 73
BRANCH 60 76
ATOM     76  O4  Z9L D   5       5.845  20.085   5.7910  0.00  0.00     0.000 O
BRANCH 76 80
ATOM     77  C1  Z9L D   5       2.090  21.403   5.4220  0.00  0.00     0.000 C
ATOM     78  C2  Z9L D   5       3.045  22.516   4.7730  0.00  0.00     0.000 C
ATOM     79  C3  Z9L D   5       4.544  21.778   4.5120  0.00  0.00     0.000 C
ATOM     80  C4  Z9L D   5       4.720  20.918   5.9050  0.00  0.00     0.000 C
ATOM     81  C5  Z9L D   5       3.684  19.969   6.6970  0.00  0.00     0.000 C
ATOM     82  O5  Z9L D   5       2.412  20.634   6.6510  0.00  0.00     0.000 O
ATOM     83   C  Z9L D   5       0.822  19.424   4.8150  0.00  0.00     0.000 C
ATOM     84   C  Z9L D   5       0.822  19.424   4.8150  0.00  0.00     0.000 C
BRANCH 78 85
ATOM     85   O  Z9L D   5       2.501  22.891   3.5480  0.00  0.00     0.000 O
ATOM     86   O  Z9L D   5       1.713  24.607   3.1660  0.00  0.00     0.000 OA
ATOM     87   S  Z9L D   5       2.384  24.260   4.3820  0.00  0.00     0.000 S
ATOM     88   O  Z9L D   5       3.592  25.048   4.3790  0.00  0.00     0.000 OA
ATOM     89   O  Z9L D   5       1.381  24.305   5.3890  0.00  0.00     0.000 OA
ENDBRANCH 78 85
BRANCH 79 90
ATOM     90   O  Z9L D   5       5.584  22.700   4.5920  0.00  0.00     0.000 O
ATOM     91   S  Z9L D   5       5.790  22.195   3.0960  0.00  0.00     0.000 S
ATOM     92   O  Z9L D   5       4.742  22.257   2.1110  0.00  0.00     0.000 OA
ATOM     93   O  Z9L D   5       6.760  21.128   3.0810  0.00  0.00     0.000 O
ATOM     94   O  Z9L D   5       6.513  23.423   3.0210  0.00  0.00     0.000 OA
ENDBRANCH 79 90
BRANCH 81 95
ATOM     95   C  Z9L D   5       4.195  19.321   8.1570  0.00  0.00     0.000 C
ATOM     96   S  Z9L D   5       4.162  19.545  10.1360  0.00  0.00     0.000 S
ATOM     97   O  Z9L D   5       4.235  20.513   8.8950  0.00  0.00     0.000 O
ATOM     98   O  Z9L D   5       5.447  18.903  10.2370  0.00  0.00     0.000 OA
ATOM     99   O  Z9L D   5       2.952  18.807  10.2750  0.00  0.00     0.000 OA
ATOM    100   O  Z9L D   5       4.223  20.801  10.8420  0.00  0.00     0.000 O
ENDBRANCH 81 95
ENDBRANCH 76 80
ENDBRANCH 60 76
ENDBRANCH 59 63
ENDBRANCH 37 59
ENDBRANCH 36 40
ENDBRANCH 23 36
ENDBRANCH 22 26
ENDBRANCH 1 22
TORSDOF 19
ENDMDL
MODEL 11
REMARK VINA RESULT:      -4.9      5.431     12.273
ROOT
ATOM      1  C1  Z9H D   1      18.612  36.276   8.8640  0.00  0.00     0.000 C
ATOM      2  C2  Z9H D   1      18.674  37.604   9.6550  0.00  0.00     0.000 C
ATOM      3  C3  Z9H D   1      18.331  37.038  11.0670  0.00  0.00     0.000 C
ATOM      4  C4  Z9H D   1      17.045  36.116  11.1350  0.00  0.00     0.000 C
ATOM      5  C5  Z9H D   1      16.768  34.942  10.1130  0.00  0.00     0.000 C
ATOM      6  O5  Z9H D   1      17.423  35.440   8.9190  0.00  0.00     0.000 O
ATOM      7   O  Z9H D   1      18.250  38.077  12.0450  0.00  0.00     0.000 O
ATOM      8   C  Z9H D   1      19.427  38.258  12.8490  0.00  0.00     0.000 C
ATOM      9   O  Z9H D   1      17.046  35.542  12.4460  0.00  0.00     0.000 O
ATOM     10   C  Z9H D   1      16.189  36.179  13.3990  0.00  0.00     0.000 C
ENDROOT
BRANCH 2 11
ATOM     11   O  Z9H D   1      20.054  37.860   9.6880  0.00  0.00     0.000 O
ATOM     12   O  Z9H D   1      20.885  39.307   8.8100  0.00  0.00     0.000 OA
ATOM     13   S  Z9H D   1      19.482  39.063   8.8230  0.00  0.00     0.000 S
ATOM     14   O  Z9H D   1      18.750  39.937   9.6950  0.00  0.00     0.000 OA
ATOM     15   O  Z9H D   1      19.035  38.621   7.5230  0.00  0.00     0.000 O
ENDBRANCH 2 11
BRANCH 5 16
ATOM     16   C  Z9H D   1      15.187  34.393  10.0750  0.00  0.00     0.000 C
ATOM     17   S  Z9H D   1      13.456  34.483   9.0580  0.00  0.00     0.000 S
ATOM     18   O  Z9H D   1      15.021  34.384   8.6770  0.00  0.00     0.000 O
ATOM     19   O  Z9H D   1      13.058  35.724   9.6570  0.00  0.00     0.000 O
ATOM     20   O  Z9H D   1      12.977  33.218   9.4960  0.00  0.00     0.000 OA
ATOM     21   O  Z9H D   1      13.352  34.519   7.6290  0.00  0.00     0.000 OA
ENDBRANCH 5 16
BRANCH 1 22
ATOM     22  O4  GU1 D   2      19.648  35.291   9.2250  0.00  0.00     0.000 O
BRANCH 22 26
ATOM     23  C1  GU1 D   2      22.252  32.430   7.8110  0.00  0.00     0.000 C
ATOM     24  C2  GU1 D   2      22.133  33.673   6.9410  0.00  0.00     0.000 C
ATOM     25  C3  GU1 D   2      21.479  34.770   7.7290  0.00  0.00     0.000 C
ATOM     26  C4  GU1 D   2      20.162  34.300   8.3280  0.00  0.00     0.000 C
ATOM     27  C5  GU1 D   2      20.372  32.990   9.0940  0.00  0.00     0.000 C
ATOM     28  O5  GU1 D   2      20.966  32.008   8.2490  0.00  0.00     0.000 O
ATOM     29   O  GU1 D   2      23.403  34.137   6.5000  0.00  0.00     0.000 O
ATOM     30   C  GU1 D   2      23.756  33.697   5.1970  0.00  0.00     0.000 C
ATOM     31   C  GU1 D   2      22.130  36.953   6.9520  0.00  0.00     0.000 C
ATOM     32   O  GU1 D   2      21.215  35.865   6.8460  0.00  0.00     0.000 O
BRANCH 27 33
ATOM     33   C  GU1 D   2      19.061  32.435   9.5980  0.00  0.00     0.000 C
ATOM     34   O  GU1 D   2      18.893  32.350  10.7970  0.00  0.00     0.000 OA
ATOM     35   O  GU1 D   2      18.193  32.086   8.8140  0.00  0.00     0.000 O
ENDBRANCH 27 33
BRANCH 23 36
ATOM     36  O4  GU6 D   3      22.619  31.168   7.2180  0.00  0.00     0.000 O
BRANCH 36 40
ATOM     37  C1  GU6 D   3      22.939  27.250   6.1040  0.00  0.00     0.000 C
ATOM     38  C2  GU6 D   3      24.255  27.877   6.5480  0.00  0.00     0.000 C
ATOM     39  C3  GU6 D   3      23.987  29.214   7.1880  0.00  0.00     0.000 C
ATOM     40  C4  GU6 D   3      22.631  29.762   7.0790  0.00  0.00     0.000 C
ATOM     41  C5  GU6 D   3      22.046  29.433   5.6660  0.00  0.00     0.000 C
ATOM     42  O5  GU6 D   3      22.318  28.118   5.1680  0.00  0.00     0.000 O
BRANCH 38 43
ATOM     43   O  GU6 D   3      24.926  27.030   7.4610  0.00  0.00     0.000 O
ATOM     44   S  GU6 D   3      25.885  26.039   6.8130  0.00  0.00     0.000 S
ATOM     45   O  GU6 D   3      25.108  24.887   6.3260  0.00  0.00     0.000 OA
ATOM     46   O  GU6 D   3      26.546  26.701   5.6730  0.00  0.00     0.000 O
ATOM     47   O  GU6 D   3      26.879  25.632   7.8000  0.00  0.00     0.000 OA
ENDBRANCH 38 43
BRANCH 39 48
ATOM     48   O  GU6 D   3      24.935  29.806   8.0560  0.00  0.00     0.000 O
ATOM     49   S  GU6 D   3      26.231  30.549   7.7330  0.00  0.00     0.000 S
ATOM     50   O  GU6 D   3      25.961  31.661   6.8150  0.00  0.00     0.000 OA
ATOM     51   O  GU6 D   3      26.670  31.038   9.0470  0.00  0.00     0.000 OA
ATOM     52   O  GU6 D   3      27.185  29.601   7.1150  0.00  0.00     0.000 O
ENDBRANCH 39 48
BRANCH 41 53
ATOM     53   C  GU6 D   3      21.221  30.303   4.7560  0.00  0.00     0.000 C
ATOM     54   O  GU6 D   3      20.571  29.278   4.0500  0.00  0.00     0.000 O
ATOM     55   S  GU6 D   3      19.650  29.609   2.8680  0.00  0.00     0.000 S
ATOM     56   O  GU6 D   3      20.509  30.181   1.8050  0.00  0.00     0.000 O
ATOM     57   O  GU6 D   3      19.012  28.367   2.4090  0.00  0.00     0.000 OA
ATOM     58   O  GU6 D   3      18.663  30.603   3.3470  0.00  0.00     0.000 OA
ENDBRANCH 41 53
BRANCH 37 59
ATOM     59  O4  Z9K D   4      21.909  26.770   6.9930  0.00  0.00     0.000 O
BRANCH 59 63
ATOM     60  C1  Z9K D   4      19.765  24.859   9.6770  0.00  0.00     0.000 C
ATOM     61  C2  Z9K D   4      21.053  25.173  10.4880  0.00  0.00     0.000 C
ATOM     62  C3  Z9K D   4      21.836  26.101   9.4620  0.00  0.00     0.000 C
ATOM     63  C4  Z9K D   4      21.925  25.669   7.9490  0.00  0.00     0.000 C
ATOM     64  C5  Z9K D   4      20.790  24.771   7.4360  0.00  0.00     0.000 C
ATOM     65  O5  Z9K D   4      19.650  25.213   8.2200  0.00  0.00     0.000 O
ATOM     66   O  Z9K D   4      23.197  26.360   9.8530  0.00  0.00     0.000 O
ATOM     67   C  Z9K D   4      23.352  27.450  10.7470  0.00  0.00     0.000 C
BRANCH 61 68
ATOM     68   O  Z9K D   4      20.675  25.998  11.5560  0.00  0.00     0.000 O
ATOM     69   O  Z9K D   4      22.614  24.462  12.2130  0.00  0.00     0.000 OA
ATOM     70   S  Z9K D   4      21.202  24.673  12.3260  0.00  0.00     0.000 S
ATOM     71   O  Z9K D   4      20.196  23.659  12.2500  0.00  0.00     0.000 OA
ATOM     72   O  Z9K D   4      20.905  25.558  13.4050  0.00  0.00     0.000 OA
ENDBRANCH 61 68
BRANCH 64 73
ATOM     73   C  Z9K D   4      20.698  24.827   5.8960  0.00  0.00     0.000 C
ATOM     74   O  Z9K D   4      21.549  24.241   5.1670  0.00  0.00     0.000 O
ATOM     75   O  Z9K D   4      19.777  25.448   5.3110  0.00  0.00     0.000 OA
ENDBRANCH 64 73
BRANCH 60 76
ATOM     76  O4  Z9L D   5      19.076  23.604   9.5440  0.00  0.00     0.000 O
BRANCH 76 80
ATOM     77  C1  Z9L D   5      15.558  21.878   8.7580  0.00  0.00     0.000 C
ATOM     78  C2  Z9L D   5      16.546  21.501   7.5520  0.00  0.00     0.000 C
ATOM     79  C3  Z9L D   5      18.116  21.824   8.0910  0.00  0.00     0.000 C
ATOM     80  C4  Z9L D   5      17.895  23.261   8.8660  0.00  0.00     0.000 C
ATOM     81  C5  Z9L D   5      16.762  23.731   9.9140  0.00  0.00     0.000 C
ATOM     82  O5  Z9L D   5      15.519  23.202   9.4280  0.00  0.00     0.000 O
ATOM     83   C  Z9L D   5      14.810  21.043  10.9110  0.00  0.00     0.000 C
ATOM     84   C  Z9L D   5      14.810  21.043  10.9110  0.00  0.00     0.000 C
BRANCH 78 85
ATOM     85   O  Z9L D   5      16.422  20.138   7.3010  0.00  0.00     0.000 O
ATOM     86   O  Z9L D   5      15.629  19.370   5.7220  0.00  0.00     0.000 OA
ATOM     87   S  Z9L D   5      15.872  20.766   5.9280  0.00  0.00     0.000 S
ATOM     88   O  Z9L D   5      16.911  21.107   4.9880  0.00  0.00     0.000 OA
ATOM     89   O  Z9L D   5      14.584  21.367   5.9770  0.00  0.00     0.000 OA
ENDBRANCH 78 85
BRANCH 79 90
ATOM     90   O  Z9L D   5      18.953  22.176   7.0360  0.00  0.00     0.000 O
ATOM     91   S  Z9L D   5      19.787  20.963   7.6450  0.00  0.00     0.000 S
ATOM     92   O  Z9L D   5      19.224  19.649   7.8150  0.00  0.00     0.000 OA
ATOM     93   O  Z9L D   5      20.767  21.475   8.5700  0.00  0.00     0.000 O
ATOM     94   O  Z9L D   5      20.371  21.008   6.3440  0.00  0.00     0.000 OA
ENDBRANCH 79 90
BRANCH 81 95
ATOM     95   C  Z9L D   5      16.806  25.326  10.4300  0.00  0.00     0.000 C
ATOM     96   S  Z9L D   5      16.061  27.150  10.1380  0.00  0.00     0.000 S
ATOM     97   O  Z9L D   5      16.448  25.933   9.2170  0.00  0.00     0.000 O
ATOM     98   O  Z9L D   5      17.296  27.735  10.5940  0.00  0.00     0.000 OA
ATOM     99   O  Z9L D   5      14.972  26.930  11.0300  0.00  0.00     0.000 OA
ATOM    100   O  Z9L D   5      15.727  27.729   8.8600  0.00  0.00     0.000 O
ENDBRANCH 81 95
ENDBRANCH 76 80
ENDBRANCH 60 76
ENDBRANCH 59 63
ENDBRANCH 37 59
ENDBRANCH 36 40
ENDBRANCH 23 36
ENDBRANCH 22 26
ENDBRANCH 1 22
TORSDOF 19
ENDMDL
MODEL 12
REMARK VINA RESULT:      -4.9      5.012     10.063
ROOT
ATOM      1  C1  Z9H D   1      15.426  33.361   9.7930  0.00  0.00     0.000 C
ATOM      2  C2  Z9H D   1      14.829  34.049  11.0430  0.00  0.00     0.000 C
ATOM      3  C3  Z9H D   1      14.291  32.774  11.7630  0.00  0.00     0.000 C
ATOM      4  C4  Z9H D   1      13.405  31.811  10.8690  0.00  0.00     0.000 C
ATOM      5  C5  Z9H D   1      13.827  31.350   9.4170  0.00  0.00     0.000 C
ATOM      6  O5  Z9H D   1      14.604  32.489   8.9680  0.00  0.00     0.000 O
ATOM      7   O  Z9H D   1      13.603  33.102  12.9710  0.00  0.00     0.000 O
ATOM      8   C  Z9H D   1      14.374  32.964  14.1770  0.00  0.00     0.000 C
ATOM      9   O  Z9H D   1      13.210  30.627  11.6480  0.00  0.00     0.000 O
ATOM     10   C  Z9H D   1      11.958  30.539  12.3340  0.00  0.00     0.000 C
ENDROOT
BRANCH 2 11
ATOM     11   O  Z9H D   1      15.982  34.412  11.7560  0.00  0.00     0.000 O
ATOM     12   O  Z9H D   1      16.513  36.194  12.0750  0.00  0.00     0.000 OA
ATOM     13   S  Z9H D   1      15.321  35.811  11.3960  0.00  0.00     0.000 S
ATOM     14   O  Z9H D   1      14.131  35.964  12.1820  0.00  0.00     0.000 OA
ATOM     15   O  Z9H D   1      15.429  36.105   9.9850  0.00  0.00     0.000 O
ENDBRANCH 2 11
BRANCH 5 16
ATOM     16   C  Z9H D   1      12.587  30.721   8.4850  0.00  0.00     0.000 C
ATOM     17   S  Z9H D   1      10.731  31.065   7.7950  0.00  0.00     0.000 S
ATOM     18   O  Z9H D   1      12.073  31.939   8.0020  0.00  0.00     0.000 O
ATOM     19   O  Z9H D   1      10.098  30.637   9.0090  0.00  0.00     0.000 O
ATOM     20   O  Z9H D   1      10.858  30.236   6.6470  0.00  0.00     0.000 OA
ATOM     21   O  Z9H D   1      10.248  32.343   7.3600  0.00  0.00     0.000 OA
ENDBRANCH 5 16
BRANCH 1 22
ATOM     22  O4  GU1 D   2      16.570  32.472  10.0630  0.00  0.00     0.000 O
BRANCH 22 26
ATOM     23  C1  GU1 D   2      20.094  31.021   8.4990  0.00  0.00     0.000 C
ATOM     24  C2  GU1 D   2      19.690  32.398   7.9950  0.00  0.00     0.000 C
ATOM     25  C3  GU1 D   2      18.634  32.968   8.8970  0.00  0.00     0.000 C
ATOM     26  C4  GU1 D   2      17.474  31.997   9.0580  0.00  0.00     0.000 C
ATOM     27  C5  GU1 D   2      17.997  30.616   9.4660  0.00  0.00     0.000 C
ATOM     28  O5  GU1 D   2      18.966  30.154   8.5290  0.00  0.00     0.000 O
ATOM     29   O  GU1 D   2      20.789  33.300   7.9710  0.00  0.00     0.000 O
ATOM     30   C  GU1 D   2      21.413  33.413   6.7000  0.00  0.00     0.000 C
ATOM     31   C  GU1 D   2      18.646  35.375   8.8960  0.00  0.00     0.000 C
ATOM     32   O  GU1 D   2      18.142  34.177   8.3100  0.00  0.00     0.000 O
BRANCH 27 33
ATOM     33   C  GU1 D   2      16.880  29.601   9.5150  0.00  0.00     0.000 C
ATOM     34   O  GU1 D   2      16.442  29.277  10.6000  0.00  0.00     0.000 OA
ATOM     35   O  GU1 D   2      16.429  29.123   8.4860  0.00  0.00     0.000 O
ENDBRANCH 27 33
BRANCH 23 36
ATOM     36  O4  GU6 D   3      20.908  30.162   7.6760  0.00  0.00     0.000 O
BRANCH 36 40
ATOM     37  C1  GU6 D   3      22.953  27.067   5.9630  0.00  0.00     0.000 C
ATOM     38  C2  GU6 D   3      23.688  27.728   7.1230  0.00  0.00     0.000 C
ATOM     39  C3  GU6 D   3      22.752  28.658   7.8490  0.00  0.00     0.000 C
ATOM     40  C4  GU6 D   3      21.452  28.936   7.2310  0.00  0.00     0.000 C
ATOM     41  C5  GU6 D   3      21.623  29.043   5.6790  0.00  0.00     0.000 C
ATOM     42  O5  GU6 D   3      22.499  28.081   5.0800  0.00  0.00     0.000 O
BRANCH 38 43
ATOM     43   O  GU6 D   3      24.188  26.751   8.0160  0.00  0.00     0.000 O
ATOM     44   S  GU6 D   3      25.688  26.834   8.2640  0.00  0.00     0.000 S
ATOM     45   O  GU6 D   3      26.385  26.163   7.1530  0.00  0.00     0.000 OA
ATOM     46   O  GU6 D   3      26.081  28.254   8.3030  0.00  0.00     0.000 O
ATOM     47   O  GU6 D   3      25.990  26.197   9.5420  0.00  0.00     0.000 OA
ENDBRANCH 38 43
BRANCH 39 48
ATOM     48   O  GU6 D   3      23.016  29.061   9.1800  0.00  0.00     0.000 O
ATOM     49   S  GU6 D   3      22.530  28.464  10.5000  0.00  0.00     0.000 S
ATOM     50   O  GU6 D   3      22.874  27.039  10.5680  0.00  0.00     0.000 OA
ATOM     51   O  GU6 D   3      23.269  29.237  11.5070  0.00  0.00     0.000 OA
ATOM     52   O  GU6 D   3      21.063  28.636  10.5930  0.00  0.00     0.000 O
ENDBRANCH 39 48
BRANCH 41 53
ATOM     53   C  GU6 D   3      20.983  30.010   4.7200  0.00  0.00     0.000 C
ATOM     54   O  GU6 D   3      20.288  29.072   3.9390  0.00  0.00     0.000 O
ATOM     55   S  GU6 D   3      19.518  29.518   2.6890  0.00  0.00     0.000 S
ATOM     56   O  GU6 D   3      20.524  30.001   1.7160  0.00  0.00     0.000 O
ATOM     57   O  GU6 D   3      18.788  28.360   2.1510  0.00  0.00     0.000 OA
ATOM     58   O  GU6 D   3      18.608  30.610   3.1010  0.00  0.00     0.000 OA
ENDBRANCH 41 53
BRANCH 37 59
ATOM     59  O4  Z9K D   4      21.886  26.105   6.0980  0.00  0.00     0.000 O
BRANCH 59 63
ATOM     60  C1  Z9K D   4      21.756  22.281   6.9950  0.00  0.00     0.000 C
ATOM     61  C2  Z9K D   4      22.846  22.293   5.8880  0.00  0.00     0.000 C
ATOM     62  C3  Z9K D   4      23.026  23.857   5.6600  0.00  0.00     0.000 C
ATOM     63  C4  Z9K D   4      21.745  24.768   5.5370  0.00  0.00     0.000 C
ATOM     64  C5  Z9K D   4      20.479  24.249   6.2360  0.00  0.00     0.000 C
ATOM     65  O5  Z9K D   4      21.014  23.531   7.3790  0.00  0.00     0.000 O
ATOM     66   O  Z9K D   4      23.818  24.175   4.5020  0.00  0.00     0.000 O
ATOM     67   C  Z9K D   4      25.217  24.187   4.7350  0.00  0.00     0.000 C
BRANCH 61 68
ATOM     68   O  Z9K D   4      24.035  21.842   6.4760  0.00  0.00     0.000 O
ATOM     69   O  Z9K D   4      23.892  21.140   4.0190  0.00  0.00     0.000 OA
ATOM     70   S  Z9K D   4      23.749  20.692   5.3720  0.00  0.00     0.000 S
ATOM     71   O  Z9K D   4      22.724  19.821   5.8600  0.00  0.00     0.000 OA
ATOM     72   O  Z9K D   4      25.009  20.293   5.9120  0.00  0.00     0.000 OA
ENDBRANCH 61 68
BRANCH 64 73
ATOM     73   C  Z9K D   4      19.479  25.399   6.4830  0.00  0.00     0.000 C
ATOM     74   O  Z9K D   4      18.986  26.057   5.5210  0.00  0.00     0.000 O
ATOM     75   O  Z9K D   4      19.112  25.719   7.6400  0.00  0.00     0.000 OA
ENDBRANCH 64 73
BRANCH 60 76
ATOM     76  O4  Z9L D   5      20.605  21.427   7.1070  0.00  0.00     0.000 O
BRANCH 76 80
ATOM     77  C1  Z9L D   5      18.451  19.197   9.6290  0.00  0.00     0.000 C
ATOM     78  C2  Z9L D   5      17.508  20.399   9.1420  0.00  0.00     0.000 C
ATOM     79  C3  Z9L D   5      18.232  21.056   7.7620  0.00  0.00     0.000 C
ATOM     80  C4  Z9L D   5      19.816  21.072   8.2140  0.00  0.00     0.000 C
ATOM     81  C5  Z9L D   5      20.723  19.942   8.9200  0.00  0.00     0.000 C
ATOM     82  O5  Z9L D   5      19.900  19.334   9.9270  0.00  0.00     0.000 O
ATOM     83   C  Z9L D   5      19.039  16.912   9.0560  0.00  0.00     0.000 C
ATOM     84   C  Z9L D   5      19.039  16.912   9.0560  0.00  0.00     0.000 C
BRANCH 78 85
ATOM     85   O  Z9L D   5      16.270  19.864   8.7980  0.00  0.00     0.000 O
ATOM     86   O  Z9L D   5      14.631  20.151   9.7680  0.00  0.00     0.000 OA
ATOM     87   S  Z9L D   5      15.877  20.798  10.0450  0.00  0.00     0.000 S
ATOM     88   O  Z9L D   5      15.668  22.180   9.6930  0.00  0.00     0.000 OA
ATOM     89   O  Z9L D   5      16.264  20.331  11.3320  0.00  0.00     0.000 OA
ENDBRANCH 78 85
BRANCH 79 90
ATOM     90   O  Z9L D   5      17.940  22.410   7.6320  0.00  0.00     0.000 O
ATOM     91   S  Z9L D   5      17.284  21.866   6.2870  0.00  0.00     0.000 S
ATOM     92   O  Z9L D   5      16.285  20.830   6.2810  0.00  0.00     0.000 OA
ATOM     93   O  Z9L D   5      18.235  21.985   5.2100  0.00  0.00     0.000 O
ATOM     94   O  Z9L D   5      16.598  23.114   6.3840  0.00  0.00     0.000 OA
ENDBRANCH 79 90
BRANCH 81 95
ATOM     95   C  Z9L D   5      22.298  20.357   9.3190  0.00  0.00     0.000 C
ATOM     96   S  Z9L D   5      23.471  21.103  10.7460  0.00  0.00     0.000 S
ATOM     97   O  Z9L D   5      22.004  21.373  10.2410  0.00  0.00     0.000 O
ATOM     98   O  Z9L D   5      24.359  21.639   9.7450  0.00  0.00     0.000 OA
ATOM     99   O  Z9L D   5      23.700  19.825  11.3310  0.00  0.00     0.000 OA
ATOM    100   O  Z9L D   5      23.118  22.164  11.6570  0.00  0.00     0.000 O
ENDBRANCH 81 95
ENDBRANCH 76 80
ENDBRANCH 60 76
ENDBRANCH 59 63
ENDBRANCH 37 59
ENDBRANCH 36 40
ENDBRANCH 23 36
ENDBRANCH 22 26
ENDBRANCH 1 22
TORSDOF 19
ENDMDL
MODEL 13
REMARK VINA RESULT:      -4.7      6.902     14.113
ROOT
ATOM      1  C1  Z9H D   1      20.083  37.611   7.6240  0.00  0.00     0.000 C
ATOM      2  C2  Z9H D   1      21.536  38.105   7.4260  0.00  0.00     0.000 C
ATOM      3  C3  Z9H D   1      21.575  39.150   8.5830  0.00  0.00     0.000 C
ATOM      4  C4  Z9H D   1      20.369  40.178   8.6100  0.00  0.00     0.000 C
ATOM      5  C5  Z9H D   1      18.857  39.739   8.4660  0.00  0.00     0.000 C
ATOM      6  O5  Z9H D   1      18.979  38.558   7.6340  0.00  0.00     0.000 O
ATOM      7   O  Z9H D   1      22.822  39.847   8.6200  0.00  0.00     0.000 O
ATOM      8   C  Z9H D   1      23.774  39.355   9.5790  0.00  0.00     0.000 C
ATOM      9   O  Z9H D   1      20.488  40.884   9.8500  0.00  0.00     0.000 O
ATOM     10   C  Z9H D   1      21.103  42.173   9.7690  0.00  0.00     0.000 C
ENDROOT
BRANCH 2 11
ATOM     11   O  Z9H D   1      22.282  37.012   7.8960  0.00  0.00     0.000 O
ATOM     12   O  Z9H D   1      23.436  35.977   6.8220  0.00  0.00     0.000 OA
ATOM     13   S  Z9H D   1      22.711  37.116   6.3700  0.00  0.00     0.000 S
ATOM     14   O  Z9H D   1      23.519  38.291   6.2070  0.00  0.00     0.000 OA
ATOM     15   O  Z9H D   1      21.641  36.714   5.4860  0.00  0.00     0.000 O
ENDBRANCH 2 11
BRANCH 5 16
ATOM     16   C  Z9H D   1      17.795  40.973   8.0760  0.00  0.00     0.000 C
ATOM     17   S  Z9H D   1      15.896  41.388   7.5660  0.00  0.00     0.000 S
ATOM     18   O  Z9H D   1      16.627  40.397   8.6090  0.00  0.00     0.000 O
ATOM     19   O  Z9H D   1      16.096  41.062   6.1830  0.00  0.00     0.000 O
ATOM     20   O  Z9H D   1      15.911  42.720   8.0620  0.00  0.00     0.000 OA
ATOM     21   O  Z9H D   1      14.744  40.731   8.1100  0.00  0.00     0.000 OA
ENDBRANCH 5 16
BRANCH 1 22
ATOM     22  O4  GU1 D   2      19.838  36.900   8.8910  0.00  0.00     0.000 O
BRANCH 22 26
ATOM     23  C1  GU1 D   2      17.947  33.664  10.6000  0.00  0.00     0.000 C
ATOM     24  C2  GU1 D   2      18.402  33.454   9.1640  0.00  0.00     0.000 C
ATOM     25  C3  GU1 D   2      19.389  34.523   8.7940  0.00  0.00     0.000 C
ATOM     26  C4  GU1 D   2      18.821  35.907   9.0710  0.00  0.00     0.000 C
ATOM     27  C5  GU1 D   2      18.298  35.980  10.5090  0.00  0.00     0.000 C
ATOM     28  O5  GU1 D   2      17.347  34.946  10.7460  0.00  0.00     0.000 O
ATOM     29   O  GU1 D   2      19.028  32.189   8.9840  0.00  0.00     0.000 O
ATOM     30   C  GU1 D   2      18.160  31.185   8.4770  0.00  0.00     0.000 C
ATOM     31   C  GU1 D   2      20.911  33.793   7.0780  0.00  0.00     0.000 C
ATOM     32   O  GU1 D   2      19.667  34.415   7.3940  0.00  0.00     0.000 O
BRANCH 27 33
ATOM     33   C  GU1 D   2      17.619  37.303  10.7770  0.00  0.00     0.000 C
ATOM     34   O  GU1 D   2      18.205  38.126  11.4500  0.00  0.00     0.000 OA
ATOM     35   O  GU1 D   2      16.511  37.535  10.3210  0.00  0.00     0.000 O
ENDBRANCH 27 33
BRANCH 23 36
ATOM     36  O4  GU6 D   3      16.822  32.924  11.1160  0.00  0.00     0.000 O
BRANCH 36 40
ATOM     37  C1  GU6 D   3      13.606  30.441  11.5500  0.00  0.00     0.000 C
ATOM     38  C2  GU6 D   3      13.508  31.378  10.3520  0.00  0.00     0.000 C
ATOM     39  C3  GU6 D   3      14.838  32.046  10.1230  0.00  0.00     0.000 C
ATOM     40  C4  GU6 D   3      15.870  31.880  11.1520  0.00  0.00     0.000 C
ATOM     41  C5  GU6 D   3      15.206  31.910  12.5680  0.00  0.00     0.000 C
ATOM     42  O5  GU6 D   3      13.967  31.204  12.6920  0.00  0.00     0.000 O
BRANCH 38 43
ATOM     43   O  GU6 D   3      13.120  30.664   9.1940  0.00  0.00     0.000 O
ATOM     44   S  GU6 D   3      11.613  30.548   9.0020  0.00  0.00     0.000 S
ATOM     45   O  GU6 D   3      11.119  29.442   9.8400  0.00  0.00     0.000 OA
ATOM     46   O  GU6 D   3      10.985  31.809   9.4340  0.00  0.00     0.000 O
ATOM     47   O  GU6 D   3      11.336  30.309   7.5890  0.00  0.00     0.000 OA
ENDBRANCH 38 43
BRANCH 39 48
ATOM     48   O  GU6 D   3      15.160  32.612   8.8670  0.00  0.00     0.000 O
ATOM     49   S  GU6 D   3      14.602  33.859   8.1820  0.00  0.00     0.000 S
ATOM     50   O  GU6 D   3      14.749  35.027   9.0580  0.00  0.00     0.000 OA
ATOM     51   O  GU6 D   3      15.444  33.985   6.9840  0.00  0.00     0.000 OA
ATOM     52   O  GU6 D   3      13.173  33.637   7.8700  0.00  0.00     0.000 O
ENDBRANCH 39 48
BRANCH 41 53
ATOM     53   C  GU6 D   3      15.696  32.567  13.8310  0.00  0.00     0.000 C
ATOM     54   O  GU6 D   3      14.997  31.765  14.7470  0.00  0.00     0.000 O
ATOM     55   S  GU6 D   3      15.044  32.078  16.2490  0.00  0.00     0.000 S
ATOM     56   O  GU6 D   3      14.359  33.378  16.4360  0.00  0.00     0.000 O
ATOM     57   O  GU6 D   3      14.338  31.010  16.9710  0.00  0.00     0.000 OA
ATOM     58   O  GU6 D   3      16.470  32.166  16.6340  0.00  0.00     0.000 OA
ENDBRANCH 41 53
BRANCH 37 59
ATOM     59  O4  Z9K D   4      14.378  29.222  11.5880  0.00  0.00     0.000 O
BRANCH 59 63
ATOM     60  C1  Z9K D   4      12.235  26.032  10.7620  0.00  0.00     0.000 C
ATOM     61  C2  Z9K D   4      11.780  26.332  12.2170  0.00  0.00     0.000 C
ATOM     62  C3  Z9K D   4      12.506  27.723  12.4790  0.00  0.00     0.000 C
ATOM     63  C4  Z9K D   4      14.016  27.891  12.0590  0.00  0.00     0.000 C
ATOM     64  C5  Z9K D   4      14.501  26.993  10.9120  0.00  0.00     0.000 C
ATOM     65  O5  Z9K D   4      13.311  26.843  10.0940  0.00  0.00     0.000 O
ATOM     66   O  Z9K D   4      12.456  28.140  13.8560  0.00  0.00     0.000 O
ATOM     67   C  Z9K D   4      11.278  28.844  14.2120  0.00  0.00     0.000 C
BRANCH 61 68
ATOM     68   O  Z9K D   4      10.407  26.609  12.1690  0.00  0.00     0.000 O
ATOM     69   O  Z9K D   4      11.041  25.442  14.3570  0.00  0.00     0.000 OA
ATOM     70   S  Z9K D   4      10.446  25.261  13.0670  0.00  0.00     0.000 S
ATOM     71   O  Z9K D   4      10.641  24.134  12.2070  0.00  0.00     0.000 OA
ATOM     72   O  Z9K D   4       9.061  25.606  13.0910  0.00  0.00     0.000 OA
ENDBRANCH 61 68
BRANCH 64 73
ATOM     73   C  Z9K D   4      15.778  27.570  10.2650  0.00  0.00     0.000 C
ATOM     74   O  Z9K D   4      16.909  27.441  10.8190  0.00  0.00     0.000 O
ATOM     75   O  Z9K D   4      15.747  28.180   9.1680  0.00  0.00     0.000 OA
ENDBRANCH 64 73
BRANCH 60 76
ATOM     76  O4  Z9L D   5      12.671  24.782  10.2020  0.00  0.00     0.000 O
BRANCH 76 80
ATOM     77  C1  Z9L D   5      12.393  22.569   6.8860  0.00  0.00     0.000 C
ATOM     78  C2  Z9L D   5      13.956  22.764   7.1910  0.00  0.00     0.000 C
ATOM     79  C3  Z9L D   5      14.076  23.283   8.7960  0.00  0.00     0.000 C
ATOM     80  C4  Z9L D   5      12.841  24.371   8.8700  0.00  0.00     0.000 C
ATOM     81  C5  Z9L D   5      11.316  24.271   8.3550  0.00  0.00     0.000 C
ATOM     82  O5  Z9L D   5      11.363  23.621   7.0760  0.00  0.00     0.000 O
ATOM     83   C  Z9L D   5      10.562  21.042   7.3400  0.00  0.00     0.000 C
ATOM     84   C  Z9L D   5      10.562  21.042   7.3400  0.00  0.00     0.000 C
BRANCH 78 85
ATOM     85   O  Z9L D   5      14.578  21.526   7.0630  0.00  0.00     0.000 O
ATOM     86   O  Z9L D   5      15.829  21.053   5.6770  0.00  0.00     0.000 OA
ATOM     87   S  Z9L D   5      15.283  22.360   5.8850  0.00  0.00     0.000 S
ATOM     88   O  Z9L D   5      16.396  23.164   6.3260  0.00  0.00     0.000 OA
ATOM     89   O  Z9L D   5      14.491  22.622   4.7330  0.00  0.00     0.000 OA
ENDBRANCH 78 85
BRANCH 79 90
ATOM     90   O  Z9L D   5      15.198  24.084   8.9870  0.00  0.00     0.000 O
ATOM     91   S  Z9L D   5      15.474  22.971  10.0920  0.00  0.00     0.000 S
ATOM     92   O  Z9L D   5      15.540  21.569   9.7730  0.00  0.00     0.000 OA
ATOM     93   O  Z9L D   5      14.959  23.419  11.3610  0.00  0.00     0.000 O
ATOM     94   O  Z9L D   5      16.795  23.496   9.9640  0.00  0.00     0.000 OA
ENDBRANCH 79 90
BRANCH 81 95
ATOM     95   C  Z9L D   5      10.357  25.637   8.5230  0.00  0.00     0.000 C
ATOM     96   S  Z9L D   5       8.507  26.355   8.3580  0.00  0.00     0.000 S
ATOM     97   O  Z9L D   5       9.381  25.308   7.5710  0.00  0.00     0.000 O
ATOM     98   O  Z9L D   5       9.033  27.658   8.0390  0.00  0.00     0.000 OA
ATOM     99   O  Z9L D   5       8.169  26.000   9.6950  0.00  0.00     0.000 OA
ATOM    100   O  Z9L D   5       7.549  25.990   7.3440  0.00  0.00     0.000 O
ENDBRANCH 81 95
ENDBRANCH 76 80
ENDBRANCH 60 76
ENDBRANCH 59 63
ENDBRANCH 37 59
ENDBRANCH 36 40
ENDBRANCH 23 36
ENDBRANCH 22 26
ENDBRANCH 1 22
TORSDOF 19
ENDMDL
MODEL 14
REMARK VINA RESULT:      -4.6      6.889     13.234
ROOT
ATOM      1  C1  Z9H D   1      21.403  38.555   6.8690  0.00  0.00     0.000 C
ATOM      2  C2  Z9H D   1      22.713  39.377   6.8680  0.00  0.00     0.000 C
ATOM      3  C3  Z9H D   1      22.407  40.285   8.0990  0.00  0.00     0.000 C
ATOM      4  C4  Z9H D   1      20.998  41.009   8.0750  0.00  0.00     0.000 C
ATOM      5  C5  Z9H D   1      19.647  40.261   7.7340  0.00  0.00     0.000 C
ATOM      6  O5  Z9H D   1      20.112  39.225   6.8320  0.00  0.00     0.000 O
ATOM      7   O  Z9H D   1      23.450  41.235   8.3250  0.00  0.00     0.000 O
ATOM      8   C  Z9H D   1      24.402  40.874   9.3400  0.00  0.00     0.000 C
ATOM      9   O  Z9H D   1      20.840  41.597   9.3700  0.00  0.00     0.000 O
ATOM     10   C  Z9H D   1      21.144  42.992   9.4560  0.00  0.00     0.000 C
ENDROOT
BRANCH 2 11
ATOM     11   O  Z9H D   1      23.648  38.437   7.3310  0.00  0.00     0.000 O
ATOM     12   O  Z9H D   1      25.079  37.770   6.2990  0.00  0.00     0.000 OA
ATOM     13   S  Z9H D   1      24.153  38.758   5.8590  0.00  0.00     0.000 S
ATOM     14   O  Z9H D   1      24.688  40.090   5.8470  0.00  0.00     0.000 OA
ATOM     15   O  Z9H D   1      23.267  38.209   4.8590  0.00  0.00     0.000 O
ENDBRANCH 2 11
BRANCH 5 16
ATOM     16   C  Z9H D   1      18.367  41.259   7.3280  0.00  0.00     0.000 C
ATOM     17   S  Z9H D   1      16.367  41.356   7.1550  0.00  0.00     0.000 S
ATOM     18   O  Z9H D   1      17.411  40.712   8.2040  0.00  0.00     0.000 O
ATOM     19   O  Z9H D   1      16.354  40.736   5.8610  0.00  0.00     0.000 O
ATOM     20   O  Z9H D   1      16.283  42.761   7.3460  0.00  0.00     0.000 OA
ATOM     21   O  Z9H D   1      15.441  40.735   8.0560  0.00  0.00     0.000 OA
ENDBRANCH 5 16
BRANCH 1 22
ATOM     22  O4  GU1 D   2      21.218  37.684   8.0440  0.00  0.00     0.000 O
BRANCH 22 26
ATOM     23  C1  GU1 D   2      19.899  33.962   9.2160  0.00  0.00     0.000 C
ATOM     24  C2  GU1 D   2      20.352  34.053   7.7670  0.00  0.00     0.000 C
ATOM     25  C3  GU1 D   2      21.150  35.310   7.5730  0.00  0.00     0.000 C
ATOM     26  C4  GU1 D   2      20.376  36.526   8.0620  0.00  0.00     0.000 C
ATOM     27  C5  GU1 D   2      19.877  36.290   9.4900  0.00  0.00     0.000 C
ATOM     28  O5  GU1 D   2      19.107  35.093   9.5580  0.00  0.00     0.000 O
ATOM     29   O  GU1 D   2      21.167  32.948   7.3940  0.00  0.00     0.000 O
ATOM     30   C  GU1 D   2      20.459  31.909   6.7320  0.00  0.00     0.000 C
ATOM     31   C  GU1 D   2      22.733  35.108   5.7710  0.00  0.00     0.000 C
ATOM     32   O  GU1 D   2      21.414  35.467   6.1750  0.00  0.00     0.000 O
BRANCH 27 33
ATOM     33   C  GU1 D   2      19.003  37.429   9.9590  0.00  0.00     0.000 C
ATOM     34   O  GU1 D   2      19.488  38.263  10.6970  0.00  0.00     0.000 OA
ATOM     35   O  GU1 D   2      17.840  37.509   9.5980  0.00  0.00     0.000 O
ENDBRANCH 27 33
BRANCH 23 36
ATOM     36  O4  GU6 D   3      18.917  32.981   9.6040  0.00  0.00     0.000 O
BRANCH 36 40
ATOM     37  C1  GU6 D   3      17.108  29.535  10.8490  0.00  0.00     0.000 C
ATOM     38  C2  GU6 D   3      16.170  30.506  10.1430  0.00  0.00     0.000 C
ATOM     39  C3  GU6 D   3      16.973  31.601   9.4910  0.00  0.00     0.000 C
ATOM     40  C4  GU6 D   3      18.402  31.681   9.8130  0.00  0.00     0.000 C
ATOM     41  C5  GU6 D   3      18.618  31.337  11.3240  0.00  0.00     0.000 C
ATOM     42  O5  GU6 D   3      17.840  30.248  11.8330  0.00  0.00     0.000 O
BRANCH 38 43
ATOM     43   O  GU6 D   3      15.395  29.832   9.1700  0.00  0.00     0.000 O
ATOM     44   S  GU6 D   3      14.060  29.308   9.6830  0.00  0.00     0.000 S
ATOM     45   O  GU6 D   3      14.293  28.028  10.3740  0.00  0.00     0.000 OA
ATOM     46   O  GU6 D   3      13.505  30.286  10.6360  0.00  0.00     0.000 O
ATOM     47   O  GU6 D   3      13.153  29.143   8.5500  0.00  0.00     0.000 OA
ENDBRANCH 38 43
BRANCH 39 48
ATOM     48   O  GU6 D   3      16.430  32.372   8.4370  0.00  0.00     0.000 O
ATOM     49   S  GU6 D   3      15.419  33.518   8.4800  0.00  0.00     0.000 S
ATOM     50   O  GU6 D   3      15.892  34.575   9.3830  0.00  0.00     0.000 OA
ATOM     51   O  GU6 D   3      15.386  33.985   7.0880  0.00  0.00     0.000 OA
ATOM     52   O  GU6 D   3      14.119  32.994   8.9520  0.00  0.00     0.000 O
ENDBRANCH 39 48
BRANCH 41 53
ATOM     53   C  GU6 D   3      19.544  31.982  12.3200  0.00  0.00     0.000 C
ATOM     54   O  GU6 D   3      20.726  31.331  11.9300  0.00  0.00     0.000 O
ATOM     55   S  GU6 D   3      22.026  31.540  12.7180  0.00  0.00     0.000 S
ATOM     56   O  GU6 D   3      21.811  30.950  14.0600  0.00  0.00     0.000 O
ATOM     57   O  GU6 D   3      23.117  30.850  12.0150  0.00  0.00     0.000 OA
ATOM     58   O  GU6 D   3      22.254  33.000  12.8100  0.00  0.00     0.000 OA
ENDBRANCH 41 53
BRANCH 37 59
ATOM     59  O4  Z9K D   4      18.032  28.647  10.1860  0.00  0.00     0.000 O
BRANCH 59 63
ATOM     60  C1  Z9K D   4      19.285  24.972   9.5790  0.00  0.00     0.000 C
ATOM     61  C2  Z9K D   4      18.758  24.873  11.0370  0.00  0.00     0.000 C
ATOM     62  C3  Z9K D   4      18.088  26.304  11.2130  0.00  0.00     0.000 C
ATOM     63  C4  Z9K D   4      18.870  27.583  10.7260  0.00  0.00     0.000 C
ATOM     64  C5  Z9K D   4      19.889  27.362   9.5980  0.00  0.00     0.000 C
ATOM     65  O5  Z9K D   4      19.295  26.279   8.8350  0.00  0.00     0.000 O
ATOM     66   O  Z9K D   4      17.714  26.594  12.5720  0.00  0.00     0.000 O
ATOM     67   C  Z9K D   4      16.438  26.102  12.9460  0.00  0.00     0.000 C
BRANCH 61 68
ATOM     68   O  Z9K D   4      17.709  23.944  11.0330  0.00  0.00     0.000 O
ATOM     69   O  Z9K D   4      19.002  23.870  13.2400  0.00  0.00     0.000 OA
ATOM     70   S  Z9K D   4      18.798  23.214  11.9830  0.00  0.00     0.000 S
ATOM     71   O  Z9K D   4      19.821  22.640  11.1630  0.00  0.00     0.000 OA
ATOM     72   O  Z9K D   4      17.686  22.322  12.0490  0.00  0.00     0.000 OA
ENDBRANCH 61 68
BRANCH 64 73
ATOM     73   C  Z9K D   4      20.207  28.690   8.8770  0.00  0.00     0.000 C
ATOM     74   O  Z9K D   4      21.048  29.508   9.3510  0.00  0.00     0.000 O
ATOM     75   O  Z9K D   4      19.651  29.005   7.7970  0.00  0.00     0.000 OA
ENDBRANCH 64 73
BRANCH 60 76
ATOM     76  O4  Z9L D   5      20.550  24.532   9.0530  0.00  0.00     0.000 O
BRANCH 76 80
ATOM     77  C1  Z9L D   5      22.360  22.780   5.9510  0.00  0.00     0.000 C
ATOM     78  C2  Z9L D   5      22.880  24.296   6.0030  0.00  0.00     0.000 C
ATOM     79  C3  Z9L D   5      22.493  24.890   7.5390  0.00  0.00     0.000 C
ATOM     80  C4  Z9L D   5      20.972  24.287   7.7360  0.00  0.00     0.000 C
ATOM     81  C5  Z9L D   5      20.380  22.812   7.4660  0.00  0.00     0.000 C
ATOM     82  O5  Z9L D   5      20.964  22.361   6.2350  0.00  0.00     0.000 O
ATOM     83   C  Z9L D   5      22.928  20.565   6.7660  0.00  0.00     0.000 C
ATOM     84   C  Z9L D   5      22.928  20.565   6.7660  0.00  0.00     0.000 C
BRANCH 78 85
ATOM     85   O  Z9L D   5      24.264  24.284   5.8540  0.00  0.00     0.000 O
ATOM     86   O  Z9L D   5      25.218  24.944   4.3160  0.00  0.00     0.000 OA
ATOM     87   S  Z9L D   5      23.807  25.068   4.5280  0.00  0.00     0.000 S
ATOM     88   O  Z9L D   5      23.583  26.478   4.7340  0.00  0.00     0.000 OA
ATOM     89   O  Z9L D   5      23.205  24.285   3.5040  0.00  0.00     0.000 OA
ENDBRANCH 78 85
BRANCH 79 90
ATOM     90   O  Z9L D   5      22.272  26.264   7.5100  0.00  0.00     0.000 O
ATOM     91   S  Z9L D   5      23.469  26.208   8.5590  0.00  0.00     0.000 S
ATOM     92   O  Z9L D   5      24.735  25.596   8.2510  0.00  0.00     0.000 OA
ATOM     93   O  Z9L D   5      22.931  26.166   9.8960  0.00  0.00     0.000 O
ATOM     94   O  Z9L D   5      23.562  27.582   8.1840  0.00  0.00     0.000 OA
ENDBRANCH 79 90
BRANCH 81 95
ATOM     95   C  Z9L D   5      18.734  22.590   7.6990  0.00  0.00     0.000 C
ATOM     96   S  Z9L D   5      17.056  21.892   6.8830  0.00  0.00     0.000 S
ATOM     97   O  Z9L D   5      18.339  22.636   6.3540  0.00  0.00     0.000 O
ATOM     98   O  Z9L D   5      16.287  22.864   7.6180  0.00  0.00     0.000 OA
ATOM     99   O  Z9L D   5      17.267  20.578   7.3890  0.00  0.00     0.000 OA
ATOM    100   O  Z9L D   5      16.696  21.985   5.4900  0.00  0.00     0.000 O
ENDBRANCH 81 95
ENDBRANCH 76 80
ENDBRANCH 60 76
ENDBRANCH 59 63
ENDBRANCH 37 59
ENDBRANCH 36 40
ENDBRANCH 23 36
ENDBRANCH 22 26
ENDBRANCH 1 22
TORSDOF 19
ENDMDL
MODEL 15
REMARK VINA RESULT:      -4.5      7.598     15.874
ROOT
ATOM      1  C1  Z9H D   1      20.810  38.583   7.0810  0.00  0.00     0.000 C
ATOM      2  C2  Z9H D   1      22.145  39.360   6.9820  0.00  0.00     0.000 C
ATOM      3  C3  Z9H D   1      21.918  40.344   8.1700  0.00  0.00     0.000 C
ATOM      4  C4  Z9H D   1      20.531  41.112   8.1610  0.00  0.00     0.000 C
ATOM      5  C5  Z9H D   1      19.146  40.391   7.9180  0.00  0.00     0.000 C
ATOM      6  O5  Z9H D   1      19.541  39.292   7.0580  0.00  0.00     0.000 O
ATOM      7   O  Z9H D   1      22.998  41.271   8.3000  0.00  0.00     0.000 O
ATOM      8   C  Z9H D   1      23.980  40.936   9.2950  0.00  0.00     0.000 C
ATOM      9   O  Z9H D   1      20.446  41.775   9.4270  0.00  0.00     0.000 O
ATOM     10   C  Z9H D   1      20.796  43.163   9.4210  0.00  0.00     0.000 C
ENDROOT
BRANCH 2 11
ATOM     11   O  Z9H D   1      23.068  38.418   7.4590  0.00  0.00     0.000 O
ATOM     12   O  Z9H D   1      24.414  37.624   6.4020  0.00  0.00     0.000 OA
ATOM     13   S  Z9H D   1      23.502  38.617   5.9430  0.00  0.00     0.000 S
ATOM     14   O  Z9H D   1      24.083  39.921   5.8080  0.00  0.00     0.000 OA
ATOM     15   O  Z9H D   1      22.541  38.036   5.0330  0.00  0.00     0.000 O
ENDBRANCH 2 11
BRANCH 5 16
ATOM     16   C  Z9H D   1      17.881  41.406   7.5070  0.00  0.00     0.000 C
ATOM     17   S  Z9H D   1      15.896  41.496   7.2000  0.00  0.00     0.000 S
ATOM     18   O  Z9H D   1      16.875  40.776   8.2630  0.00  0.00     0.000 O
ATOM     19   O  Z9H D   1      15.985  40.989   5.8600  0.00  0.00     0.000 O
ATOM     20   O  Z9H D   1      15.775  42.879   7.5040  0.00  0.00     0.000 OA
ATOM     21   O  Z9H D   1      14.920  40.790   7.9770  0.00  0.00     0.000 OA
ENDBRANCH 5 16
BRANCH 1 22
ATOM     22  O4  GU1 D   2      20.649  37.785   8.3100  0.00  0.00     0.000 O
BRANCH 22 26
ATOM     23  C1  GU1 D   2      19.143  34.239   9.7660  0.00  0.00     0.000 C
ATOM     24  C2  GU1 D   2      19.493  34.225   8.2860  0.00  0.00     0.000 C
ATOM     25  C3  GU1 D   2      20.367  35.404   7.9710  0.00  0.00     0.000 C
ATOM     26  C4  GU1 D   2      19.725  36.699   8.4480  0.00  0.00     0.000 C
ATOM     27  C5  GU1 D   2      19.317  36.571   9.9190  0.00  0.00     0.000 C
ATOM     28  O5  GU1 D   2      18.466  35.444  10.1030  0.00  0.00     0.000 O
ATOM     29   O  GU1 D   2      20.191  33.042   7.9150  0.00  0.00     0.000 O
ATOM     30   C  GU1 D   2      19.360  32.033   7.3600  0.00  0.00     0.000 C
ATOM     31   C  GU1 D   2      21.792  34.993   6.0750  0.00  0.00     0.000 C
ATOM     32   O  GU1 D   2      20.537  35.474   6.5520  0.00  0.00     0.000 O
BRANCH 27 33
ATOM     33   C  GU1 D   2      18.569  37.797  10.3870  0.00  0.00     0.000 C
ATOM     34   O  GU1 D   2      19.121  38.548  11.1660  0.00  0.00     0.000 OA
ATOM     35   O  GU1 D   2      17.439  38.026   9.9850  0.00  0.00     0.000 O
ENDBRANCH 27 33
BRANCH 23 36
ATOM     36  O4  GU6 D   3      18.121  33.358  10.2730  0.00  0.00     0.000 O
BRANCH 36 40
ATOM     37  C1  GU6 D   3      14.759  31.138  10.9570  0.00  0.00     0.000 C
ATOM     38  C2  GU6 D   3      14.926  32.317  11.9070  0.00  0.00     0.000 C
ATOM     39  C3  GU6 D   3      16.026  33.216  11.4080  0.00  0.00     0.000 C
ATOM     40  C4  GU6 D   3      16.856  32.728  10.3010  0.00  0.00     0.000 C
ATOM     41  C5  GU6 D   3      17.108  31.193  10.4740  0.00  0.00     0.000 C
ATOM     42  O5  GU6 D   3      15.983  30.421  10.9080  0.00  0.00     0.000 O
BRANCH 38 43
ATOM     43   O  GU6 D   3      13.718  33.046  12.0120  0.00  0.00     0.000 O
ATOM     44   S  GU6 D   3      12.858  32.669  13.2120  0.00  0.00     0.000 S
ATOM     45   O  GU6 D   3      12.090  31.458  12.8760  0.00  0.00     0.000 OA
ATOM     46   O  GU6 D   3      13.744  32.386  14.3560  0.00  0.00     0.000 O
ATOM     47   O  GU6 D   3      11.976  33.788  13.5280  0.00  0.00     0.000 OA
ENDBRANCH 38 43
BRANCH 39 48
ATOM     48   O  GU6 D   3      16.109  34.565  11.8280  0.00  0.00     0.000 O
ATOM     49   S  GU6 D   3      16.669  35.157  13.1210  0.00  0.00     0.000 S
ATOM     50   O  GU6 D   3      18.055  34.718  13.3200  0.00  0.00     0.000 OA
ATOM     51   O  GU6 D   3      16.599  36.605  12.8820  0.00  0.00     0.000 OA
ATOM     52   O  GU6 D   3      15.829  34.711  14.2550  0.00  0.00     0.000 O
ENDBRANCH 39 48
BRANCH 41 53
ATOM     53   C  GU6 D   3      18.369  30.408  10.2340  0.00  0.00     0.000 C
ATOM     54   O  GU6 D   3      17.834  29.452   9.3560  0.00  0.00     0.000 O
ATOM     55   S  GU6 D   3      18.695  28.283   8.8590  0.00  0.00     0.000 S
ATOM     56   O  GU6 D   3      18.994  27.441  10.0400  0.00  0.00     0.000 O
ATOM     57   O  GU6 D   3      17.925  27.525   7.8610  0.00  0.00     0.000 OA
ATOM     58   O  GU6 D   3      19.933  28.861   8.2890  0.00  0.00     0.000 OA
ENDBRANCH 41 53
BRANCH 37 59
ATOM     59  O4  Z9K D   4      14.258  31.226   9.6060  0.00  0.00     0.000 O
BRANCH 59 63
ATOM     60  C1  Z9K D   4      10.889  29.213   9.8030  0.00  0.00     0.000 C
ATOM     61  C2  Z9K D   4      11.877  28.102   9.3520  0.00  0.00     0.000 C
ATOM     62  C3  Z9K D   4      13.264  28.874   9.4530  0.00  0.00     0.000 C
ATOM     63  C4  Z9K D   4      13.375  30.333   8.8680  0.00  0.00     0.000 C
ATOM     64  C5  Z9K D   4      12.067  31.138   8.8100  0.00  0.00     0.000 C
ATOM     65  O5  Z9K D   4      11.333  30.642   9.9600  0.00  0.00     0.000 O
ATOM     66   O  Z9K D   4      14.360  28.154   8.8600  0.00  0.00     0.000 O
ATOM     67   C  Z9K D   4      14.977  27.213   9.7230  0.00  0.00     0.000 C
BRANCH 61 68
ATOM     68   O  Z9K D   4      11.893  27.131  10.3630  0.00  0.00     0.000 O
ATOM     69   O  Z9K D   4      12.235  26.074   8.0580  0.00  0.00     0.000 OA
ATOM     70   S  Z9K D   4      11.290  26.301   9.1100  0.00  0.00     0.000 S
ATOM     71   O  Z9K D   4       9.914  26.652   8.9370  0.00  0.00     0.000 OA
ATOM     72   O  Z9K D   4      11.401  25.297  10.1190  0.00  0.00     0.000 OA
ENDBRANCH 61 68
BRANCH 64 73
ATOM     73   C  Z9K D   4      12.358  32.651   8.7120  0.00  0.00     0.000 C
ATOM     74   O  Z9K D   4      13.097  33.118   7.7980  0.00  0.00     0.000 O
ATOM     75   O  Z9K D   4      11.870  33.472   9.5260  0.00  0.00     0.000 OA
ENDBRANCH 64 73
BRANCH 60 76
ATOM     76  O4  Z9L D   5       9.609  29.553   9.2420  0.00  0.00     0.000 O
BRANCH 76 80
ATOM     77  C1  Z9L D   5       5.820  30.460  10.1330  0.00  0.00     0.000 C
ATOM     78  C2  Z9L D   5       6.457  31.749   9.4210  0.00  0.00     0.000 C
ATOM     79  C3  Z9L D   5       7.867  31.228   8.6450  0.00  0.00     0.000 C
ATOM     80  C4  Z9L D   5       8.506  30.229   9.7890  0.00  0.00     0.000 C
ATOM     81  C5  Z9L D   5       7.820  29.076  10.6840  0.00  0.00     0.000 C
ATOM     82  O5  Z9L D   5       6.544  29.588  11.0940  0.00  0.00     0.000 O
ATOM     83   C  Z9L D   5       4.585  28.437   9.6100  0.00  0.00     0.000 C
ATOM     84   C  Z9L D   5       4.585  28.437   9.6100  0.00  0.00     0.000 C
BRANCH 78 85
ATOM     85   O  Z9L D   5       5.553  32.206   8.4670  0.00  0.00     0.000 O
ATOM     86   O  Z9L D   5       4.531  33.833   8.6000  0.00  0.00     0.000 OA
ATOM     87   S  Z9L D   5       5.551  33.423   9.5160  0.00  0.00     0.000 S
ATOM     88   O  Z9L D   5       6.629  34.361   9.3200  0.00  0.00     0.000 OA
ATOM     89   O  Z9L D   5       4.878  33.196  10.7480  0.00  0.00     0.000 OA
ENDBRANCH 78 85
BRANCH 79 90
ATOM     90   O  Z9L D   5       8.812  32.248   8.5720  0.00  0.00     0.000 O
ATOM     91   S  Z9L D   5       8.639  31.932   7.0210  0.00  0.00     0.000 S
ATOM     92   O  Z9L D   5       7.360  31.980   6.3630  0.00  0.00     0.000 OA
ATOM     93   O  Z9L D   5       9.649  30.990   6.6100  0.00  0.00     0.000 O
ATOM     94   O  Z9L D   5       9.213  33.235   6.9240  0.00  0.00     0.000 OA
ENDBRANCH 79 90
BRANCH 81 95
ATOM     95   C  Z9L D   5       8.782  28.317  11.8290  0.00  0.00     0.000 C
ATOM     96   S  Z9L D   5       9.342  28.318  13.7410  0.00  0.00     0.000 S
ATOM     97   O  Z9L D   5       8.987  29.419  12.6720  0.00  0.00     0.000 O
ATOM     98   O  Z9L D   5      10.627  27.781  13.3720  0.00  0.00     0.000 OA
ATOM     99   O  Z9L D   5       8.269  27.468  14.1340  0.00  0.00     0.000 OA
ATOM    100   O  Z9L D   5       9.553  29.489  14.5550  0.00  0.00     0.000 O
ENDBRANCH 81 95
ENDBRANCH 76 80
ENDBRANCH 60 76
ENDBRANCH 59 63
ENDBRANCH 37 59
ENDBRANCH 36 40
ENDBRANCH 23 36
ENDBRANCH 22 26
ENDBRANCH 1 22
TORSDOF 19
ENDMDL
MODEL 16
REMARK VINA RESULT:      -4.3      5.524     14.551
ROOT
ATOM      1  C1  Z9H D   1      24.939  33.979   5.9460  0.00  0.00     0.000 C
ATOM      2  C2  Z9H D   1      26.189  34.887   5.8450  0.00  0.00     0.000 C
ATOM      3  C3  Z9H D   1      25.707  36.033   6.7860  0.00  0.00     0.000 C
ATOM      4  C4  Z9H D   1      24.263  36.607   6.4740  0.00  0.00     0.000 C
ATOM      5  C5  Z9H D   1      23.003  35.686   6.2240  0.00  0.00     0.000 C
ATOM      6  O5  Z9H D   1      23.618  34.508   5.6440  0.00  0.00     0.000 O
ATOM      7   O  Z9H D   1      26.660  37.096   6.8520  0.00  0.00     0.000 O
ATOM      8   C  Z9H D   1      27.531  37.072   7.9950  0.00  0.00     0.000 C
ATOM      9   O  Z9H D   1      23.943  37.472   7.5680  0.00  0.00     0.000 O
ATOM     10   C  Z9H D   1      24.148  38.869   7.3310  0.00  0.00     0.000 C
ENDROOT
BRANCH 2 11
ATOM     11   O  Z9H D   1      27.132  34.169   6.5960  0.00  0.00     0.000 O
ATOM     12   O  Z9H D   1      28.713  33.427   5.8820  0.00  0.00     0.000 OA
ATOM     13   S  Z9H D   1      27.771  34.198   5.1420  0.00  0.00     0.000 S
ATOM     14   O  Z9H D   1      28.206  35.538   4.8670  0.00  0.00     0.000 OA
ATOM     15   O  Z9H D   1      27.043  33.355   4.2220  0.00  0.00     0.000 O
ENDBRANCH 2 11
BRANCH 5 16
ATOM     16   C  Z9H D   1      21.706  36.444   5.4850  0.00  0.00     0.000 C
ATOM     17   S  Z9H D   1      19.841  37.134   5.7750  0.00  0.00     0.000 S
ATOM     18   O  Z9H D   1      21.222  37.136   6.6100  0.00  0.00     0.000 O
ATOM     19   O  Z9H D   1      19.236  35.843   5.6150  0.00  0.00     0.000 O
ATOM     20   O  Z9H D   1      19.894  38.104   4.7380  0.00  0.00     0.000 OA
ATOM     21   O  Z9H D   1      19.392  37.792   6.9670  0.00  0.00     0.000 OA
ENDBRANCH 5 16
BRANCH 1 22
ATOM     22  O4  GU1 D   2      24.699  33.403   7.2810  0.00  0.00     0.000 O
BRANCH 22 26
ATOM     23  C1  GU1 D   2      23.586  30.045   9.3910  0.00  0.00     0.000 C
ATOM     24  C2  GU1 D   2      24.543  29.787   8.2370  0.00  0.00     0.000 C
ATOM     25  C3  GU1 D   2      25.162  31.085   7.8050  0.00  0.00     0.000 C
ATOM     26  C4  GU1 D   2      24.092  32.126   7.5080  0.00  0.00     0.000 C
ATOM     27  C5  GU1 D   2      23.123  32.233   8.6890  0.00  0.00     0.000 C
ATOM     28  O5  GU1 D   2      22.568  30.957   8.9960  0.00  0.00     0.000 O
ATOM     29   O  GU1 D   2      25.589  28.895   8.6020  0.00  0.00     0.000 O
ATOM     30   C  GU1 D   2      25.348  27.545   8.2320  0.00  0.00     0.000 C
ATOM     31   C  GU1 D   2      27.326  30.765   6.8020  0.00  0.00     0.000 C
ATOM     32   O  GU1 D   2      25.916  30.851   6.6110  0.00  0.00     0.000 O
BRANCH 27 33
ATOM     33   C  GU1 D   2      21.981  33.170   8.3750  0.00  0.00     0.000 C
ATOM     34   O  GU1 D   2      21.257  32.906   7.4370  0.00  0.00     0.000 OA
ATOM     35   O  GU1 D   2      21.791  34.167   9.0540  0.00  0.00     0.000 O
ENDBRANCH 27 33
BRANCH 23 36
ATOM     36  O4  GU6 D   3      22.684  29.008   9.8250  0.00  0.00     0.000 O
BRANCH 36 40
ATOM     37  C1  GU6 D   3      19.391  26.608  10.1250  0.00  0.00     0.000 C
ATOM     38  C2  GU6 D   3      20.436  26.362  11.2060  0.00  0.00     0.000 C
ATOM     39  C3  GU6 D   3      21.465  27.462  11.1730  0.00  0.00     0.000 C
ATOM     40  C4  GU6 D   3      21.429  28.395  10.0410  0.00  0.00     0.000 C
ATOM     41  C5  GU6 D   3      21.065  27.616   8.7340  0.00  0.00     0.000 C
ATOM     42  O5  GU6 D   3      20.041  26.624   8.8630  0.00  0.00     0.000 O
BRANCH 38 43
ATOM     43   O  GU6 D   3      19.828  26.308  12.4820  0.00  0.00     0.000 O
ATOM     44   S  GU6 D   3      19.433  24.907  12.9320  0.00  0.00     0.000 S
ATOM     45   O  GU6 D   3      18.142  24.563  12.3100  0.00  0.00     0.000 OA
ATOM     46   O  GU6 D   3      20.464  23.958  12.4760  0.00  0.00     0.000 O
ATOM     47   O  GU6 D   3      19.343  24.888  14.3880  0.00  0.00     0.000 OA
ENDBRANCH 38 43
BRANCH 39 48
ATOM     48   O  GU6 D   3      22.280  27.728  12.2990  0.00  0.00     0.000 O
ATOM     49   S  GU6 D   3      23.563  27.041  12.7650  0.00  0.00     0.000 S
ATOM     50   O  GU6 D   3      24.561  27.052  11.6900  0.00  0.00     0.000 OA
ATOM     51   O  GU6 D   3      23.992  27.872  13.8980  0.00  0.00     0.000 OA
ATOM     52   O  GU6 D   3      23.247  25.647  13.1500  0.00  0.00     0.000 O
ENDBRANCH 39 48
BRANCH 41 53
ATOM     53   C  GU6 D   3      21.631  27.774   7.3490  0.00  0.00     0.000 C
ATOM     54   O  GU6 D   3      20.846  28.866   6.9450  0.00  0.00     0.000 O
ATOM     55   S  GU6 D   3      20.932  29.397   5.5080  0.00  0.00     0.000 S
ATOM     56   O  GU6 D   3      20.404  28.331   4.6250  0.00  0.00     0.000 O
ATOM     57   O  GU6 D   3      20.109  30.611   5.4070  0.00  0.00     0.000 OA
ATOM     58   O  GU6 D   3      22.360  29.665   5.2240  0.00  0.00     0.000 OA
ENDBRANCH 41 53
BRANCH 37 59
ATOM     59  O4  Z9K D   4      18.433  27.688  10.1280  0.00  0.00     0.000 O
BRANCH 59 63
ATOM     60  C1  Z9K D   4      15.841  30.475  11.1080  0.00  0.00     0.000 C
ATOM     61  C2  Z9K D   4      16.749  30.451  12.3690  0.00  0.00     0.000 C
ATOM     62  C3  Z9K D   4      17.898  29.460  11.8950  0.00  0.00     0.000 C
ATOM     63  C4  Z9K D   4      17.503  28.121  11.1640  0.00  0.00     0.000 C
ATOM     64  C5  Z9K D   4      16.161  28.130  10.4160  0.00  0.00     0.000 C
ATOM     65  O5  Z9K D   4      16.048  29.509   9.9740  0.00  0.00     0.000 O
ATOM     66   O  Z9K D   4      18.775  29.054  12.9610  0.00  0.00     0.000 O
ATOM     67   C  Z9K D   4      19.843  29.952  13.2140  0.00  0.00     0.000 C
BRANCH 61 68
ATOM     68   O  Z9K D   4      17.340  31.718  12.4740  0.00  0.00     0.000 O
ATOM     69   O  Z9K D   4      16.892  30.710  14.7840  0.00  0.00     0.000 OA
ATOM     70   S  Z9K D   4      16.432  31.659  13.8150  0.00  0.00     0.000 S
ATOM     71   O  Z9K D   4      15.067  31.901  13.4640  0.00  0.00     0.000 OA
ATOM     72   O  Z9K D   4      17.114  32.905  13.9590  0.00  0.00     0.000 OA
ENDBRANCH 61 68
BRANCH 64 73
ATOM     73   C  Z9K D   4      16.113  27.006   9.3600  0.00  0.00     0.000 C
ATOM     74   O  Z9K D   4      15.948  25.797   9.6960  0.00  0.00     0.000 O
ATOM     75   O  Z9K D   4      16.227  27.246   8.1330  0.00  0.00     0.000 OA
ENDBRANCH 64 73
BRANCH 60 76
ATOM     76  O4  Z9L D   5      14.406  30.427  11.0380  0.00  0.00     0.000 O
BRANCH 76 80
ATOM     77  C1  Z9L D   5      11.449  32.469   9.2900  0.00  0.00     0.000 C
ATOM     78  C2  Z9L D   5      11.104  30.911   9.1270  0.00  0.00     0.000 C
ATOM     79  C3  Z9L D   5      12.075  30.081  10.2350  0.00  0.00     0.000 C
ATOM     80  C4  Z9L D   5      13.510  30.870  10.0520  0.00  0.00     0.000 C
ATOM     81  C5  Z9L D   5      13.844  32.446   9.9830  0.00  0.00     0.000 C
ATOM     82  O5  Z9L D   5      12.814  33.043   9.1810  0.00  0.00     0.000 O
ATOM     83   C  Z9L D   5      11.051  34.340  10.7860  0.00  0.00     0.000 C
ATOM     84   C  Z9L D   5      11.051  34.340  10.7860  0.00  0.00     0.000 C
BRANCH 78 85
ATOM     85   O  Z9L D   5       9.767  30.727   9.4650  0.00  0.00     0.000 O
ATOM     86   O  Z9L D   5       8.379  30.193   8.2400  0.00  0.00     0.000 OA
ATOM     87   S  Z9L D   5       9.774  30.262   7.9260  0.00  0.00     0.000 S
ATOM     88   O  Z9L D   5      10.182  28.893   7.7350  0.00  0.00     0.000 OA
ATOM     89   O  Z9L D   5       9.888  31.294   6.9540  0.00  0.00     0.000 OA
ENDBRANCH 78 85
BRANCH 79 90
ATOM     90   O  Z9L D   5      12.376  28.799   9.7840  0.00  0.00     0.000 O
ATOM     91   S  Z9L D   5      11.724  28.440  11.1920  0.00  0.00     0.000 S
ATOM     92   O  Z9L D   5      10.399  28.867  11.5580  0.00  0.00     0.000 OA
ATOM     93   O  Z9L D   5      12.764  28.317  12.1820  0.00  0.00     0.000 O
ATOM     94   O  Z9L D   5      11.597  27.170  10.5540  0.00  0.00     0.000 OA
ENDBRANCH 79 90
BRANCH 81 95
ATOM     95   C  Z9L D   5      15.437  32.883   9.6920  0.00  0.00     0.000 C
ATOM     96   S  Z9L D   5      16.649  33.906   8.4870  0.00  0.00     0.000 S
ATOM     97   O  Z9L D   5      15.344  33.044   8.3020  0.00  0.00     0.000 O
ATOM     98   O  Z9L D   5      17.719  32.984   8.7680  0.00  0.00     0.000 OA
ATOM     99   O  Z9L D   5      16.494  35.111   9.2300  0.00  0.00     0.000 OA
ATOM    100   O  Z9L D   5      16.511  34.022   7.0560  0.00  0.00     0.000 O
ENDBRANCH 81 95
ENDBRANCH 76 80
ENDBRANCH 60 76
ENDBRANCH 59 63
ENDBRANCH 37 59
ENDBRANCH 36 40
ENDBRANCH 23 36
ENDBRANCH 22 26
ENDBRANCH 1 22
TORSDOF 19
ENDMDL
MODEL 17
REMARK VINA RESULT:      -4.2      6.022     14.918
ROOT
ATOM      1  C1  Z9H D   1      24.726  33.989   6.0260  0.00  0.00     0.000 C
ATOM      2  C2  Z9H D   1      26.045  34.795   5.9550  0.00  0.00     0.000 C
ATOM      3  C3  Z9H D   1      25.634  35.977   6.8850  0.00  0.00     0.000 C
ATOM      4  C4  Z9H D   1      24.248  36.663   6.5390  0.00  0.00     0.000 C
ATOM      5  C5  Z9H D   1      22.925  35.844   6.2590  0.00  0.00     0.000 C
ATOM      6  O5  Z9H D   1      23.459  34.621   5.6930  0.00  0.00     0.000 O
ATOM      7   O  Z9H D   1      26.666  36.961   6.9740  0.00  0.00     0.000 O
ATOM      8   C  Z9H D   1      27.505  36.870   8.1380  0.00  0.00     0.000 C
ATOM      9   O  Z9H D   1      23.972  37.552   7.6260  0.00  0.00     0.000 O
ATOM     10   C  Z9H D   1      24.292  38.928   7.3950  0.00  0.00     0.000 C
ENDROOT
BRANCH 2 11
ATOM     11   O  Z9H D   1      26.911  34.006   6.7280  0.00  0.00     0.000 O
ATOM     12   O  Z9H D   1      28.464  33.169   6.0590  0.00  0.00     0.000 OA
ATOM     13   S  Z9H D   1      27.603  34.010   5.2980  0.00  0.00     0.000 S
ATOM     14   O  Z9H D   1      28.136  35.321   5.0590  0.00  0.00     0.000 OA
ATOM     15   O  Z9H D   1      26.853  33.231   4.3400  0.00  0.00     0.000 O
ENDBRANCH 2 11
BRANCH 5 16
ATOM     16   C  Z9H D   1      21.710  36.702   5.4900  0.00  0.00     0.000 C
ATOM     17   S  Z9H D   1      19.862  37.461   5.7090  0.00  0.00     0.000 S
ATOM     18   O  Z9H D   1      21.188  37.353   6.6230  0.00  0.00     0.000 O
ATOM     19   O  Z9H D   1      19.213  36.210   5.4380  0.00  0.00     0.000 O
ATOM     20   O  Z9H D   1      20.021  38.484   4.7350  0.00  0.00     0.000 OA
ATOM     21   O  Z9H D   1      19.370  38.072   6.9090  0.00  0.00     0.000 OA
ENDBRANCH 5 16
BRANCH 1 22
ATOM     22  O4  GU1 D   2      24.409  33.436   7.3540  0.00  0.00     0.000 O
BRANCH 22 26
ATOM     23  C1  GU1 D   2      22.813  30.258   9.4340  0.00  0.00     0.000 C
ATOM     24  C2  GU1 D   2      23.739  29.874   8.2890  0.00  0.00     0.000 C
ATOM     25  C3  GU1 D   2      24.538  31.074   7.8720  0.00  0.00     0.000 C
ATOM     26  C4  GU1 D   2      23.628  32.254   7.5670  0.00  0.00     0.000 C
ATOM     27  C5  GU1 D   2      22.668  32.492   8.7370  0.00  0.00     0.000 C
ATOM     28  O5  GU1 D   2      21.937  31.304   9.0310  0.00  0.00     0.000 O
ATOM     29   O  GU1 D   2      24.646  28.843   8.6620  0.00  0.00     0.000 O
ATOM     30   C  GU1 D   2      24.224  27.541   8.2830  0.00  0.00     0.000 C
ATOM     31   C  GU1 D   2      26.649  30.459   6.8930  0.00  0.00     0.000 C
ATOM     32   O  GU1 D   2      25.267  30.741   6.6860  0.00  0.00     0.000 O
BRANCH 27 33
ATOM     33   C  GU1 D   2      21.672  33.580   8.4150  0.00  0.00     0.000 C
ATOM     34   O  GU1 D   2      20.890  33.396   7.5050  0.00  0.00     0.000 OA
ATOM     35   O  GU1 D   2      21.655  34.617   9.0590  0.00  0.00     0.000 O
ENDBRANCH 27 33
BRANCH 23 36
ATOM     36  O4  GU6 D   3      21.770  29.355   9.8520  0.00  0.00     0.000 O
BRANCH 36 40
ATOM     37  C1  GU6 D   3      18.184  27.535  10.5710  0.00  0.00     0.000 C
ATOM     38  C2  GU6 D   3      19.231  27.287  11.6500  0.00  0.00     0.000 C
ATOM     39  C3  GU6 D   3      20.404  28.207  11.4360  0.00  0.00     0.000 C
ATOM     40  C4  GU6 D   3      20.452  28.970  10.1840  0.00  0.00     0.000 C
ATOM     41  C5  GU6 D   3      19.920  28.083   9.0100  0.00  0.00     0.000 C
ATOM     42  O5  GU6 D   3      18.771  27.281   9.3040  0.00  0.00     0.000 O
BRANCH 38 43
ATOM     43   O  GU6 D   3      18.680  27.499  12.9360  0.00  0.00     0.000 O
ATOM     44   S  GU6 D   3      18.146  26.239  13.6070  0.00  0.00     0.000 S
ATOM     45   O  GU6 D   3      16.798  25.965  13.0820  0.00  0.00     0.000 OA
ATOM     46   O  GU6 D   3      19.040  25.115  13.2740  0.00  0.00     0.000 O
ATOM     47   O  GU6 D   3      18.123  26.450  15.0510  0.00  0.00     0.000 OA
ENDBRANCH 38 43
BRANCH 39 48
ATOM     48   O  GU6 D   3      21.299  28.501  12.4910  0.00  0.00     0.000 O
ATOM     49   S  GU6 D   3      22.507  27.715  13.0000  0.00  0.00     0.000 S
ATOM     50   O  GU6 D   3      23.447  27.465  11.9000  0.00  0.00     0.000 OA
ATOM     51   O  GU6 D   3      23.092  28.615  14.0030  0.00  0.00     0.000 OA
ATOM     52   O  GU6 D   3      22.040  26.431  13.5690  0.00  0.00     0.000 O
ENDBRANCH 39 48
BRANCH 41 53
ATOM     53   C  GU6 D   3      20.439  27.964   7.6030  0.00  0.00     0.000 C
ATOM     54   O  GU6 D   3      19.999  29.211   7.1300  0.00  0.00     0.000 O
ATOM     55   S  GU6 D   3      20.171  29.589   5.6530  0.00  0.00     0.000 S
ATOM     56   O  GU6 D   3      19.305  28.674   4.8740  0.00  0.00     0.000 O
ATOM     57   O  GU6 D   3      19.746  30.985   5.4740  0.00  0.00     0.000 OA
ATOM     58   O  GU6 D   3      21.598  29.391   5.3130  0.00  0.00     0.000 OA
ENDBRANCH 41 53
BRANCH 37 59
ATOM     59  O4  Z9K D   4      17.392  28.735  10.4450  0.00  0.00     0.000 O
BRANCH 59 63
ATOM     60  C1  Z9K D   4      13.624  29.851  10.4630  0.00  0.00     0.000 C
ATOM     61  C2  Z9K D   4      13.553  28.565   9.5930  0.00  0.00     0.000 C
ATOM     62  C3  Z9K D   4      15.039  28.019   9.7420  0.00  0.00     0.000 C
ATOM     63  C4  Z9K D   4      16.245  29.023   9.5940  0.00  0.00     0.000 C
ATOM     64  C5  Z9K D   4      15.945  30.492   9.9320  0.00  0.00     0.000 C
ATOM     65  O5  Z9K D   4      14.936  30.384  10.9700  0.00  0.00     0.000 O
ATOM     66   O  Z9K D   4      15.342  26.942   8.8370  0.00  0.00     0.000 O
ATOM     67   C  Z9K D   4      14.969  25.658   9.3080  0.00  0.00     0.000 C
BRANCH 61 68
ATOM     68   O  Z9K D   4      12.730  27.656  10.2710  0.00  0.00     0.000 O
ATOM     69   O  Z9K D   4      12.536  27.370   7.7350  0.00  0.00     0.000 OA
ATOM     70   S  Z9K D   4      11.900  27.904   8.9020  0.00  0.00     0.000 S
ATOM     71   O  Z9K D   4      11.229  29.164   8.9850  0.00  0.00     0.000 OA
ATOM     72   O  Z9K D   4      11.119  26.905   9.5580  0.00  0.00     0.000 OA
ENDBRANCH 61 68
BRANCH 64 73
ATOM     73   C  Z9K D   4      17.247  31.261  10.2400  0.00  0.00     0.000 C
ATOM     74   O  Z9K D   4      18.093  31.508   9.3320  0.00  0.00     0.000 O
ATOM     75   O  Z9K D   4      17.513  31.675  11.3950  0.00  0.00     0.000 OA
ENDBRANCH 64 73
BRANCH 60 76
ATOM     76  O4  Z9L D   5      13.073  31.150  10.1850  0.00  0.00     0.000 O
BRANCH 76 80
ATOM     77  C1  Z9L D   5      11.000  34.196  11.7330  0.00  0.00     0.000 C
ATOM     78  C2  Z9L D   5      12.468  34.749  11.3990  0.00  0.00     0.000 C
ATOM     79  C3  Z9L D   5      13.180  33.632  10.3460  0.00  0.00     0.000 C
ATOM     80  C4  Z9L D   5      12.718  32.209  11.0370  0.00  0.00     0.000 C
ATOM     81  C5  Z9L D   5      11.284  31.723  11.5920  0.00  0.00     0.000 C
ATOM     82  O5  Z9L D   5      10.717  32.846  12.2820  0.00  0.00     0.000 O
ATOM     83   C  Z9L D   5       8.796  33.983  10.7380  0.00  0.00     0.000 C
ATOM     84   C  Z9L D   5       8.796  33.983  10.7380  0.00  0.00     0.000 C
BRANCH 78 85
ATOM     85   O  Z9L D   5      12.332  35.969  10.7450  0.00  0.00     0.000 O
ATOM     86   O  Z9L D   5      12.807  37.682  11.4870  0.00  0.00     0.000 OA
ATOM     87   S  Z9L D   5      13.062  36.417  12.1050  0.00  0.00     0.000 S
ATOM     88   O  Z9L D   5      14.495  36.266  12.0710  0.00  0.00     0.000 OA
ATOM     89   O  Z9L D   5      12.265  36.409  13.2830  0.00  0.00     0.000 OA
ENDBRANCH 78 85
BRANCH 79 90
ATOM     90   O  Z9L D   5      14.563  33.605  10.4950  0.00  0.00     0.000 O
ATOM     91   S  Z9L D   5      14.468  34.008   8.9570  0.00  0.00     0.000 S
ATOM     92   O  Z9L D   5      13.734  35.162   8.5070  0.00  0.00     0.000 OA
ATOM     93   O  Z9L D   5      14.549  32.818   8.1460  0.00  0.00     0.000 O
ATOM     94   O  Z9L D   5      15.805  34.432   9.2180  0.00  0.00     0.000 OA
ENDBRANCH 79 90
BRANCH 81 95
ATOM     95   C  Z9L D   5      11.214  30.215  12.3240  0.00  0.00     0.000 C
ATOM     96   S  Z9L D   5      11.210  29.254  14.0680  0.00  0.00     0.000 S
ATOM     97   O  Z9L D   5      11.925  30.532  13.4910  0.00  0.00     0.000 O
ATOM     98   O  Z9L D   5      11.836  28.113  13.4500  0.00  0.00     0.000 OA
ATOM     99   O  Z9L D   5       9.795  29.341  14.1990  0.00  0.00     0.000 OA
ATOM    100   O  Z9L D   5      11.978  29.619  15.2330  0.00  0.00     0.000 O
ENDBRANCH 81 95
ENDBRANCH 76 80
ENDBRANCH 60 76
ENDBRANCH 59 63
ENDBRANCH 37 59
ENDBRANCH 36 40
ENDBRANCH 23 36
ENDBRANCH 22 26
ENDBRANCH 1 22
TORSDOF 19
ENDMDL
MODEL 18
REMARK VINA RESULT:      -4.1     17.281     24.310
ROOT
ATOM      1  C1  Z9H D   1      14.822  45.945   7.0680  0.00  0.00     0.000 C
ATOM      2  C2  Z9H D   1      16.164  45.789   6.3140  0.00  0.00     0.000 C
ATOM      3  C3  Z9H D   1      16.892  47.040   6.8950  0.00  0.00     0.000 C
ATOM      4  C4  Z9H D   1      16.076  48.396   6.8230  0.00  0.00     0.000 C
ATOM      5  C5  Z9H D   1      14.565  48.521   7.2710  0.00  0.00     0.000 C
ATOM      6  O5  Z9H D   1      14.071  47.188   6.9860  0.00  0.00     0.000 O
ATOM      7   O  Z9H D   1      18.189  47.209   6.3190  0.00  0.00     0.000 O
ATOM      8   C  Z9H D   1      19.282  46.709   7.1070  0.00  0.00     0.000 C
ATOM      9   O  Z9H D   1      16.825  49.342   7.5930  0.00  0.00     0.000 O
ATOM     10   C  Z9H D   1      17.657  50.230   6.8410  0.00  0.00     0.000 C
ENDROOT
BRANCH 2 11
ATOM     11   O  Z9H D   1      16.742  44.691   6.9690  0.00  0.00     0.000 O
ATOM     12   O  Z9H D   1      17.087  43.028   6.1490  0.00  0.00     0.000 OA
ATOM     13   S  Z9H D   1      16.546  44.165   5.4830  0.00  0.00     0.000 S
ATOM     14   O  Z9H D   1      17.485  44.844   4.6370  0.00  0.00     0.000 OA
ATOM     15   O  Z9H D   1      15.151  43.950   5.1730  0.00  0.00     0.000 O
ENDBRANCH 2 11
BRANCH 5 16
ATOM     16   C  Z9H D   1      13.770  49.883   6.7110  0.00  0.00     0.000 C
ATOM     17   S  Z9H D   1      13.281  50.922   5.0610  0.00  0.00     0.000 S
ATOM     18   O  Z9H D   1      13.345  49.362   5.4750  0.00  0.00     0.000 O
ATOM     19   O  Z9H D   1      14.555  51.576   4.9800  0.00  0.00     0.000 O
ATOM     20   O  Z9H D   1      12.126  51.531   5.6230  0.00  0.00     0.000 OA
ATOM     21   O  Z9H D   1      12.900  50.332   3.8110  0.00  0.00     0.000 OA
ENDBRANCH 5 16
BRANCH 1 22
ATOM     22  O4  GU1 D   2      14.911  45.783   8.5300  0.00  0.00     0.000 O
BRANCH 22 26
ATOM     23  C1  GU1 D   2      13.021  44.326  11.8880  0.00  0.00     0.000 C
ATOM     24  C2  GU1 D   2      12.838  43.483  10.6350  0.00  0.00     0.000 C
ATOM     25  C3  GU1 D   2      13.858  43.888   9.6100  0.00  0.00     0.000 C
ATOM     26  C4  GU1 D   2      13.814  45.389   9.3630  0.00  0.00     0.000 C
ATOM     27  C5  GU1 D   2      13.900  46.142  10.6940  0.00  0.00     0.000 C
ATOM     28  O5  GU1 D   2      12.872  45.707  11.5800  0.00  0.00     0.000 O
ATOM     29   O  GU1 D   2      13.001  42.095  10.8990  0.00  0.00     0.000 O
ATOM     30   C  GU1 D   2      11.779  41.402  11.1090  0.00  0.00     0.000 C
ATOM     31   C  GU1 D   2      14.389  42.090   8.1010  0.00  0.00     0.000 C
ATOM     32   O  GU1 D   2      13.559  43.214   8.3840  0.00  0.00     0.000 O
BRANCH 27 33
ATOM     33   C  GU1 D   2      13.738  47.630  10.4920  0.00  0.00     0.000 C
ATOM     34   O  GU1 D   2      14.674  48.355  10.7620  0.00  0.00     0.000 OA
ATOM     35   O  GU1 D   2      12.691  48.088  10.0620  0.00  0.00     0.000 O
ENDBRANCH 27 33
BRANCH 23 36
ATOM     36  O4  GU6 D   3      12.018  44.305  12.9230  0.00  0.00     0.000 O
BRANCH 36 40
ATOM     37  C1  GU6 D   3       8.725  43.514  15.2090  0.00  0.00     0.000 C
ATOM     38  C2  GU6 D   3       9.220  44.951  15.3140  0.00  0.00     0.000 C
ATOM     39  C3  GU6 D   3      10.249  45.210  14.2450  0.00  0.00     0.000 C
ATOM     40  C4  GU6 D   3      10.743  44.058  13.4820  0.00  0.00     0.000 C
ATOM     41  C5  GU6 D   3      10.887  42.824  14.4320  0.00  0.00     0.000 C
ATOM     42  O5  GU6 D   3       9.831  42.641  15.3810  0.00  0.00     0.000 O
BRANCH 38 43
ATOM     43   O  GU6 D   3       8.144  45.859  15.1790  0.00  0.00     0.000 O
ATOM     44   S  GU6 D   3       8.006  46.847  16.3300  0.00  0.00     0.000 S
ATOM     45   O  GU6 D   3       7.295  46.181  17.4350  0.00  0.00     0.000 OA
ATOM     46   O  GU6 D   3       9.354  47.238  16.7790  0.00  0.00     0.000 O
ATOM     47   O  GU6 D   3       7.276  48.019  15.8590  0.00  0.00     0.000 OA
ENDBRANCH 38 43
BRANCH 39 48
ATOM     48   O  GU6 D   3      10.553  46.529  13.8330  0.00  0.00     0.000 O
ATOM     49   S  GU6 D   3       9.942  47.373  12.7160  0.00  0.00     0.000 S
ATOM     50   O  GU6 D   3       8.488  47.464  12.8880  0.00  0.00     0.000 OA
ATOM     51   O  GU6 D   3      10.582  48.683  12.9000  0.00  0.00     0.000 OA
ATOM     52   O  GU6 D   3      10.259  46.746  11.4130  0.00  0.00     0.000 O
ENDBRANCH 39 48
BRANCH 41 53
ATOM     53   C  GU6 D   3      11.977  41.787  14.4800  0.00  0.00     0.000 C
ATOM     54   O  GU6 D   3      11.156  40.653  14.5860  0.00  0.00     0.000 O
ATOM     55   S  GU6 D   3      11.773  39.262  14.7880  0.00  0.00     0.000 S
ATOM     56   O  GU6 D   3      12.415  39.269  16.1240  0.00  0.00     0.000 O
ATOM     57   O  GU6 D   3      10.699  38.261  14.7330  0.00  0.00     0.000 OA
ATOM     58   O  GU6 D   3      12.776  39.067  13.7170  0.00  0.00     0.000 OA
ENDBRANCH 41 53
BRANCH 37 59
ATOM     59  O4  Z9K D   4       7.928  42.989  14.1260  0.00  0.00     0.000 O
BRANCH 59 63
ATOM     60  C1  Z9K D   4       4.348  42.655  12.5390  0.00  0.00     0.000 C
ATOM     61  C2  Z9K D   4       4.006  42.670  14.0550  0.00  0.00     0.000 C
ATOM     62  C3  Z9K D   4       5.431  42.990  14.6830  0.00  0.00     0.000 C
ATOM     63  C4  Z9K D   4       6.696  42.212  14.1530  0.00  0.00     0.000 C
ATOM     64  C5  Z9K D   4       6.608  41.684  12.7130  0.00  0.00     0.000 C
ATOM     65  O5  Z9K D   4       5.773  42.674  12.0570  0.00  0.00     0.000 O
ATOM     66   O  Z9K D   4       5.471  42.830  16.1130  0.00  0.00     0.000 O
ATOM     67   C  Z9K D   4       5.047  43.970  16.8420  0.00  0.00     0.000 C
BRANCH 61 68
ATOM     68   O  Z9K D   4       3.211  43.801  14.2860  0.00  0.00     0.000 O
ATOM     69   O  Z9K D   4       2.548  41.873  15.8320  0.00  0.00     0.000 OA
ATOM     70   S  Z9K D   4       2.191  42.596  14.6480  0.00  0.00     0.000 S
ATOM     71   O  Z9K D   4       1.698  42.022  13.4340  0.00  0.00     0.000 OA
ATOM     72   O  Z9K D   4       1.424  43.756  14.9710  0.00  0.00     0.000 OA
ENDBRANCH 61 68
BRANCH 64 73
ATOM     73   C  Z9K D   4       8.016  41.407  12.1440  0.00  0.00     0.000 C
ATOM     74   O  Z9K D   4       8.508  42.131  11.2310  0.00  0.00     0.000 O
ATOM     75   O  Z9K D   4       8.725  40.461  12.5660  0.00  0.00     0.000 OA
ENDBRANCH 64 73
BRANCH 60 76
ATOM     76  O4  Z9L D   5       3.899  41.735  11.5300  0.00  0.00     0.000 O
BRANCH 76 80
ATOM     77  C1  Z9L D   5       2.669  41.469   7.7370  0.00  0.00     0.000 C
ATOM     78  C2  Z9L D   5       4.012  40.600   7.8570  0.00  0.00     0.000 C
ATOM     79  C3  Z9L D   5       4.270  40.332   9.5070  0.00  0.00     0.000 C
ATOM     80  C4  Z9L D   5       3.913  41.816  10.1280  0.00  0.00     0.000 C
ATOM     81  C5  Z9L D   5       2.675  42.808   9.8400  0.00  0.00     0.000 C
ATOM     82  O5  Z9L D   5       2.444  42.766   8.4240  0.00  0.00     0.000 O
ATOM     83   C  Z9L D   5       0.258  41.243   7.9070  0.00  0.00     0.000 C
ATOM     84   C  Z9L D   5       0.258  41.243   7.9070  0.00  0.00     0.000 C
BRANCH 78 85
ATOM     85   O  Z9L D   5       3.794  39.379   7.2250  0.00  0.00     0.000 O
ATOM     86   O  Z9L D   5       4.553  38.858   5.5340  0.00  0.00     0.000 OA
ATOM     87   S  Z9L D   5       4.872  40.058   6.2460  0.00  0.00     0.000 S
ATOM     88   O  Z9L D   5       6.238  39.886   6.6760  0.00  0.00     0.000 OA
ATOM     89   O  Z9L D   5       4.401  41.118   5.4230  0.00  0.00     0.000 OA
ENDBRANCH 78 85
BRANCH 79 90
ATOM     90   O  Z9L D   5       5.627  40.203   9.7940  0.00  0.00     0.000 O
ATOM     91   S  Z9L D   5       5.095  38.830  10.3980  0.00  0.00     0.000 S
ATOM     92   O  Z9L D   5       4.350  37.880   9.6140  0.00  0.00     0.000 OA
ATOM     93   O  Z9L D   5       4.831  38.998  11.8060  0.00  0.00     0.000 O
ATOM     94   O  Z9L D   5       6.476  38.498  10.2650  0.00  0.00     0.000 OA
ENDBRANCH 79 90
BRANCH 81 95
ATOM     95   C  Z9L D   5       2.694  44.302  10.6030  0.00  0.00     0.000 C
ATOM     96   S  Z9L D   5       3.178  46.224  10.4030  0.00  0.00     0.000 S
ATOM     97   O  Z9L D   5       3.789  44.854   9.9230  0.00  0.00     0.000 O
ATOM     98   O  Z9L D   5       3.427  46.316  11.8190  0.00  0.00     0.000 OA
ATOM     99   O  Z9L D   5       1.911  46.564   9.8500  0.00  0.00     0.000 OA
ATOM    100   O  Z9L D   5       4.332  46.733   9.7030  0.00  0.00     0.000 O
ENDBRANCH 81 95
ENDBRANCH 76 80
ENDBRANCH 60 76
ENDBRANCH 59 63
ENDBRANCH 37 59
ENDBRANCH 36 40
ENDBRANCH 23 36
ENDBRANCH 22 26
ENDBRANCH 1 22
TORSDOF 19
ENDMDL
MODEL 19
REMARK VINA RESULT:      -4.1      6.989     13.720
ROOT
ATOM      1  C1  Z9H D   1      20.566  38.128   7.2500  0.00  0.00     0.000 C
ATOM      2  C2  Z9H D   1      21.974  38.767   7.2000  0.00  0.00     0.000 C
ATOM      3  C3  Z9H D   1      21.794  39.794   8.3590  0.00  0.00     0.000 C
ATOM      4  C4  Z9H D   1      20.493  40.695   8.2720  0.00  0.00     0.000 C
ATOM      5  C5  Z9H D   1      19.055  40.110   7.9770  0.00  0.00     0.000 C
ATOM      6  O5  Z9H D   1      19.376  38.959   7.1560  0.00  0.00     0.000 O
ATOM      7   O  Z9H D   1      22.954  40.612   8.5240  0.00  0.00     0.000 O
ATOM      8   C  Z9H D   1      23.852  40.203   9.5690  0.00  0.00     0.000 C
ATOM      9   O  Z9H D   1      20.418  41.391   9.5210  0.00  0.00     0.000 O
ATOM     10   C  Z9H D   1      20.905  42.737   9.5080  0.00  0.00     0.000 C
ENDROOT
BRANCH 2 11
ATOM     11   O  Z9H D   1      22.777  37.748   7.7360  0.00  0.00     0.000 O
ATOM     12   O  Z9H D   1      24.099  36.818   6.7630  0.00  0.00     0.000 OA
ATOM     13   S  Z9H D   1      23.311  37.886   6.2460  0.00  0.00     0.000 S
ATOM     14   O  Z9H D   1      24.020  39.129   6.1350  0.00  0.00     0.000 OA
ATOM     15   O  Z9H D   1      22.353  37.387   5.2870  0.00  0.00     0.000 O
ENDBRANCH 2 11
BRANCH 5 16
ATOM     16   C  Z9H D   1      17.917  41.237   7.4900  0.00  0.00     0.000 C
ATOM     17   S  Z9H D   1      15.957  41.537   7.1630  0.00  0.00     0.000 S
ATOM     18   O  Z9H D   1      16.845  40.780   8.2790  0.00  0.00     0.000 O
ATOM     19   O  Z9H D   1      15.985  40.935   5.8610  0.00  0.00     0.000 O
ATOM     20   O  Z9H D   1      15.999  42.942   7.3730  0.00  0.00     0.000 OA
ATOM     21   O  Z9H D   1      14.905  41.004   7.9780  0.00  0.00     0.000 OA
ENDBRANCH 5 16
BRANCH 1 22
ATOM     22  O4  GU1 D   2      20.271  37.377   8.4830  0.00  0.00     0.000 O
BRANCH 22 26
ATOM     23  C1  GU1 D   2      18.375  34.046   9.9930  0.00  0.00     0.000 C
ATOM     24  C2  GU1 D   2      18.896  33.896   8.5720  0.00  0.00     0.000 C
ATOM     25  C3  GU1 D   2      19.876  34.996   8.2830  0.00  0.00     0.000 C
ATOM     26  C4  GU1 D   2      19.268  36.359   8.5840  0.00  0.00     0.000 C
ATOM     27  C5  GU1 D   2      18.682  36.370   9.9990  0.00  0.00     0.000 C
ATOM     28  O5  GU1 D   2      17.743  35.310  10.1580  0.00  0.00     0.000 O
ATOM     29   O  GU1 D   2      19.555  32.651   8.3740  0.00  0.00     0.000 O
ATOM     30   C  GU1 D   2      18.731  31.650   7.7950  0.00  0.00     0.000 C
ATOM     31   C  GU1 D   2      21.485  34.359   6.6100  0.00  0.00     0.000 C
ATOM     32   O  GU1 D   2      20.217  34.945   6.8940  0.00  0.00     0.000 O
BRANCH 27 33
ATOM     33   C  GU1 D   2      17.966  37.669  10.2840  0.00  0.00     0.000 C
ATOM     34   O  GU1 D   2      18.555  38.530  10.9040  0.00  0.00     0.000 OA
ATOM     35   O  GU1 D   2      16.822  37.846   9.8930  0.00  0.00     0.000 O
ENDBRANCH 27 33
BRANCH 23 36
ATOM     36  O4  GU6 D   3      17.245  33.266  10.4320  0.00  0.00     0.000 O
BRANCH 36 40
ATOM     37  C1  GU6 D   3      14.701  30.303  11.6330  0.00  0.00     0.000 C
ATOM     38  C2  GU6 D   3      14.110  31.239  10.5860  0.00  0.00     0.000 C
ATOM     39  C3  GU6 D   3      15.198  32.112  10.0170  0.00  0.00     0.000 C
ATOM     40  C4  GU6 D   3      16.508  32.086  10.6790  0.00  0.00     0.000 C
ATOM     41  C5  GU6 D   3      16.310  31.980  12.2270  0.00  0.00     0.000 C
ATOM     42  O5  GU6 D   3      15.280  31.086  12.6650  0.00  0.00     0.000 O
BRANCH 38 43
ATOM     43   O  GU6 D   3      13.493  30.500   9.5490  0.00  0.00     0.000 O
ATOM     44   S  GU6 D   3      12.022  30.186   9.7900  0.00  0.00     0.000 S
ATOM     45   O  GU6 D   3      11.933  29.010  10.6720  0.00  0.00     0.000 OA
ATOM     46   O  GU6 D   3      11.396  31.345  10.4530  0.00  0.00     0.000 O
ATOM     47   O  GU6 D   3      11.378  29.937   8.5050  0.00  0.00     0.000 OA
ENDBRANCH 38 43
BRANCH 39 48
ATOM     48   O  GU6 D   3      15.038  32.749   8.7650  0.00  0.00     0.000 O
ATOM     49   S  GU6 D   3      14.193  33.964   8.3830  0.00  0.00     0.000 S
ATOM     50   O  GU6 D   3      14.539  35.108   9.2350  0.00  0.00     0.000 OA
ATOM     51   O  GU6 D   3      14.573  34.209   6.9850  0.00  0.00     0.000 OA
ATOM     52   O  GU6 D   3      12.762  33.624   8.5490  0.00  0.00     0.000 O
ENDBRANCH 39 48
BRANCH 41 53
ATOM     53   C  GU6 D   3      17.062  32.677  13.3280  0.00  0.00     0.000 C
ATOM     54   O  GU6 D   3      18.187  31.837  13.3520  0.00  0.00     0.000 O
ATOM     55   S  GU6 D   3      19.279  32.028  14.4130  0.00  0.00     0.000 S
ATOM     56   O  GU6 D   3      18.664  31.709  15.7220  0.00  0.00     0.000 O
ATOM     57   O  GU6 D   3      20.384  31.104  14.1190  0.00  0.00     0.000 OA
ATOM     58   O  GU6 D   3      19.703  33.445  14.3550  0.00  0.00     0.000 OA
ENDBRANCH 41 53
BRANCH 37 59
ATOM     59  O4  Z9K D   4      15.612  29.218  11.3550  0.00  0.00     0.000 O
BRANCH 59 63
ATOM     60  C1  Z9K D   4      14.780  25.385  11.1050  0.00  0.00     0.000 C
ATOM     61  C2  Z9K D   4      14.277  25.710  12.5390  0.00  0.00     0.000 C
ATOM     62  C3  Z9K D   4      14.444  27.291  12.5670  0.00  0.00     0.000 C
ATOM     63  C4  Z9K D   4      15.776  27.931  12.0190  0.00  0.00     0.000 C
ATOM     64  C5  Z9K D   4      16.535  27.112  10.9640  0.00  0.00     0.000 C
ATOM     65  O5  Z9K D   4      15.467  26.424  10.2610  0.00  0.00     0.000 O
ATOM     66   O  Z9K D   4      14.273  27.858  13.8780  0.00  0.00     0.000 O
ATOM     67   C  Z9K D   4      12.926  28.132  14.2270  0.00  0.00     0.000 C
BRANCH 61 68
ATOM     68   O  Z9K D   4      12.898  25.460  12.5570  0.00  0.00     0.000 O
ATOM     69   O  Z9K D   4      13.958  24.962  14.8320  0.00  0.00     0.000 OA
ATOM     70   S  Z9K D   4      13.448  24.377  13.6290  0.00  0.00     0.000 S
ATOM     71   O  Z9K D   4      14.029  23.276  12.9230  0.00  0.00     0.000 OA
ATOM     72   O  Z9K D   4      12.035  24.198  13.7090  0.00  0.00     0.000 OA
ENDBRANCH 61 68
BRANCH 64 73
ATOM     73   C  Z9K D   4      17.495  28.011  10.1570  0.00  0.00     0.000 C
ATOM     74   O  Z9K D   4      18.548  28.480  10.6780  0.00  0.00     0.000 O
ATOM     75   O  Z9K D   4      17.274  28.305   8.9560  0.00  0.00     0.000 OA
ENDBRANCH 64 73
BRANCH 60 76
ATOM     76  O4  Z9L D   5      15.635  24.310  10.6800  0.00  0.00     0.000 O
BRANCH 76 80
ATOM     77  C1  Z9L D   5      16.151  21.490   7.8950  0.00  0.00     0.000 C
ATOM     78  C2  Z9L D   5      17.387  22.504   7.7720  0.00  0.00     0.000 C
ATOM     79  C3  Z9L D   5      17.423  23.403   9.2040  0.00  0.00     0.000 C
ATOM     80  C4  Z9L D   5      15.819  23.714   9.4220  0.00  0.00     0.000 C
ATOM     81  C5  Z9L D   5      14.535  22.744   9.3210  0.00  0.00     0.000 C
ATOM     82  O5  Z9L D   5      14.753  21.901   8.1800  0.00  0.00     0.000 O
ATOM     83   C  Z9L D   5      15.509  19.430   9.0080  0.00  0.00     0.000 C
ATOM     84   C  Z9L D   5      15.509  19.430   9.0080  0.00  0.00     0.000 C
BRANCH 78 85
ATOM     85   O  Z9L D   5      18.555  21.752   7.6760  0.00  0.00     0.000 O
ATOM     86   O  Z9L D   5      19.645  21.597   6.0950  0.00  0.00     0.000 OA
ATOM     87   S  Z9L D   5      18.516  22.466   6.2360  0.00  0.00     0.000 S
ATOM     88   O  Z9L D   5      19.067  23.798   6.2330  0.00  0.00     0.000 OA
ATOM     89   O  Z9L D   5      17.550  21.977   5.3130  0.00  0.00     0.000 OA
ENDBRANCH 78 85
BRANCH 79 90
ATOM     90   O  Z9L D   5      17.950  24.674   8.9910  0.00  0.00     0.000 O
ATOM     91   S  Z9L D   5      18.972  24.141  10.0910  0.00  0.00     0.000 S
ATOM     92   O  Z9L D   5      19.723  22.925   9.9190  0.00  0.00     0.000 OA
ATOM     93   O  Z9L D   5      18.530  24.561  11.3970  0.00  0.00     0.000 O
ATOM     94   O  Z9L D   5      19.757  25.203   9.5490  0.00  0.00     0.000 OA
ENDBRANCH 79 90
BRANCH 81 95
ATOM     95   C  Z9L D   5      13.024  23.445   9.5210  0.00  0.00     0.000 C
ATOM     96   S  Z9L D   5      11.445  24.201   8.5720  0.00  0.00     0.000 S
ATOM     97   O  Z9L D   5      13.002  24.199   8.3380  0.00  0.00     0.000 O
ATOM     98   O  Z9L D   5      11.193  25.086   9.6800  0.00  0.00     0.000 OA
ATOM     99   O  Z9L D   5      10.802  22.934   8.4740  0.00  0.00     0.000 OA
ATOM    100   O  Z9L D   5      11.485  24.986   7.3630  0.00  0.00     0.000 O
ENDBRANCH 81 95
ENDBRANCH 76 80
ENDBRANCH 60 76
ENDBRANCH 59 63
ENDBRANCH 37 59
ENDBRANCH 36 40
ENDBRANCH 23 36
ENDBRANCH 22 26
ENDBRANCH 1 22
TORSDOF 19
ENDMDL
MODEL 20
REMARK VINA RESULT:      -4.1     13.223     21.087
ROOT
ATOM      1  C1  Z9H D   1      24.933  40.537   8.9050  0.00  0.00     0.000 C
ATOM      2  C2  Z9H D   1      26.094  39.900   8.1050  0.00  0.00     0.000 C
ATOM      3  C3  Z9H D   1      25.497  38.469   7.9470  0.00  0.00     0.000 C
ATOM      4  C4  Z9H D   1      24.974  37.799   9.2850  0.00  0.00     0.000 C
ATOM      5  C5  Z9H D   1      24.046  38.550  10.3210  0.00  0.00     0.000 C
ATOM      6  O5  Z9H D   1      24.467  39.926  10.1400  0.00  0.00     0.000 O
ATOM      7   O  Z9H D   1      26.402  37.592   7.2740  0.00  0.00     0.000 O
ATOM      8   C  Z9H D   1      26.154  37.410   5.8700  0.00  0.00     0.000 C
ATOM      9   O  Z9H D   1      24.283  36.612   8.8820  0.00  0.00     0.000 O
ATOM     10   C  Z9H D   1      25.027  35.396   8.9980  0.00  0.00     0.000 C
ENDROOT
BRANCH 2 11
ATOM     11   O  Z9H D   1      25.944  40.500   6.8450  0.00  0.00     0.000 O
ATOM     12   O  Z9H D   1      27.189  41.696   6.0860  0.00  0.00     0.000 OA
ATOM     13   S  Z9H D   1      27.352  41.044   7.3410  0.00  0.00     0.000 S
ATOM     14   O  Z9H D   1      28.290  39.958   7.3140  0.00  0.00     0.000 OA
ATOM     15   O  Z9H D   1      27.207  41.990   8.4230  0.00  0.00     0.000 O
ENDBRANCH 2 11
BRANCH 5 16
ATOM     16   C  Z9H D   1      23.974  37.855  11.8420  0.00  0.00     0.000 C
ATOM     17   S  Z9H D   1      24.858  36.536  13.0740  0.00  0.00     0.000 S
ATOM     18   O  Z9H D   1      25.355  37.663  12.0300  0.00  0.00     0.000 O
ATOM     19   O  Z9H D   1      24.216  35.401  12.4750  0.00  0.00     0.000 O
ATOM     20   O  Z9H D   1      24.402  37.146  14.2740  0.00  0.00     0.000 OA
ATOM     21   O  Z9H D   1      26.276  36.352  13.1880  0.00  0.00     0.000 OA
ENDBRANCH 5 16
BRANCH 1 22
ATOM     22  O4  GU1 D   2      23.662  40.651   8.1670  0.00  0.00     0.000 O
BRANCH 22 26
ATOM     23  C1  GU1 D   2      20.261  42.940   7.7650  0.00  0.00     0.000 C
ATOM     24  C2  GU1 D   2      21.478  43.689   8.2840  0.00  0.00     0.000 C
ATOM     25  C3  GU1 D   2      22.712  42.874   8.0260  0.00  0.00     0.000 C
ATOM     26  C4  GU1 D   2      22.561  41.467   8.5840  0.00  0.00     0.000 C
ATOM     27  C5  GU1 D   2      21.256  40.841   8.0840  0.00  0.00     0.000 C
ATOM     28  O5  GU1 D   2      20.147  41.675   8.4070  0.00  0.00     0.000 O
ATOM     29   O  GU1 D   2      21.637  44.951   7.6480  0.00  0.00     0.000 O
ATOM     30   C  GU1 D   2      21.099  46.039   8.3860  0.00  0.00     0.000 C
ATOM     31   C  GU1 D   2      24.676  44.249   7.8120  0.00  0.00     0.000 C
ATOM     32   O  GU1 D   2      23.817  43.508   8.6760  0.00  0.00     0.000 O
BRANCH 27 33
ATOM     33   C  GU1 D   2      21.019  39.490   8.7170  0.00  0.00     0.000 C
ATOM     34   O  GU1 D   2      20.688  39.450   9.8840  0.00  0.00     0.000 OA
ATOM     35   O  GU1 D   2      21.155  38.467   8.0650  0.00  0.00     0.000 O
ENDBRANCH 27 33
BRANCH 23 36
ATOM     36  O4  GU6 D   3      18.935  43.391   8.1080  0.00  0.00     0.000 O
BRANCH 36 40
ATOM     37  C1  GU6 D   3      15.374  43.856  10.0550  0.00  0.00     0.000 C
ATOM     38  C2  GU6 D   3      15.429  44.539   8.6950  0.00  0.00     0.000 C
ATOM     39  C3  GU6 D   3      16.658  44.087   7.9520  0.00  0.00     0.000 C
ATOM     40  C4  GU6 D   3      17.652  43.302   8.6930  0.00  0.00     0.000 C
ATOM     41  C5  GU6 D   3      17.770  43.853  10.1520  0.00  0.00     0.000 C
ATOM     42  O5  GU6 D   3      16.537  44.211  10.7870  0.00  0.00     0.000 O
BRANCH 38 43
ATOM     43   O  GU6 D   3      14.270  44.239   7.9400  0.00  0.00     0.000 O
ATOM     44   S  GU6 D   3      13.115  45.209   8.1480  0.00  0.00     0.000 S
ATOM     45   O  GU6 D   3      12.401  44.830   9.3800  0.00  0.00     0.000 OA
ATOM     46   O  GU6 D   3      13.663  46.569   8.2980  0.00  0.00     0.000 O
ATOM     47   O  GU6 D   3      12.235  45.149   6.9850  0.00  0.00     0.000 OA
ENDBRANCH 38 43
BRANCH 39 48
ATOM     48   O  GU6 D   3      16.743  44.210   6.5450  0.00  0.00     0.000 O
ATOM     49   S  GU6 D   3      17.112  45.419   5.6860  0.00  0.00     0.000 S
ATOM     50   O  GU6 D   3      18.420  45.946   6.0910  0.00  0.00     0.000 OA
ATOM     51   O  GU6 D   3      17.161  44.861   4.3280  0.00  0.00     0.000 OA
ATOM     52   O  GU6 D   3      16.073  46.460   5.8530  0.00  0.00     0.000 O
ENDBRANCH 39 48
BRANCH 41 53
ATOM     53   C  GU6 D   3      19.002  44.048  10.9940  0.00  0.00     0.000 C
ATOM     54   O  GU6 D   3      19.126  42.729  11.4600  0.00  0.00     0.000 O
ATOM     55   S  GU6 D   3      20.201  42.365  12.4920  0.00  0.00     0.000 S
ATOM     56   O  GU6 D   3      19.847  43.072  13.7450  0.00  0.00     0.000 O
ATOM     57   O  GU6 D   3      20.183  40.909  12.6940  0.00  0.00     0.000 OA
ATOM     58   O  GU6 D   3      21.498  42.841  11.9610  0.00  0.00     0.000 OA
ENDBRANCH 41 53
BRANCH 37 59
ATOM     59  O4  Z9K D   4      15.147  42.447  10.2660  0.00  0.00     0.000 O
BRANCH 59 63
ATOM     60  C1  Z9K D   4      12.823  39.989  12.2680  0.00  0.00     0.000 C
ATOM     61  C2  Z9K D   4      13.089  41.087  13.3340  0.00  0.00     0.000 C
ATOM     62  C3  Z9K D   4      13.872  42.165  12.4670  0.00  0.00     0.000 C
ATOM     63  C4  Z9K D   4      15.024  41.686  11.5030  0.00  0.00     0.000 C
ATOM     64  C5  Z9K D   4      14.918  40.241  10.9920  0.00  0.00     0.000 C
ATOM     65  O5  Z9K D   4      13.483  40.031  10.9170  0.00  0.00     0.000 O
ATOM     66   O  Z9K D   4      14.465  43.210  13.2590  0.00  0.00     0.000 O
ATOM     67   C  Z9K D   4      13.590  44.287  13.5570  0.00  0.00     0.000 C
BRANCH 61 68
ATOM     68   O  Z9K D   4      11.850  41.661  13.6500  0.00  0.00     0.000 O
ATOM     69   O  Z9K D   4      13.414  41.658  15.6760  0.00  0.00     0.000 OA
ATOM     70   S  Z9K D   4      12.290  41.012  15.0680  0.00  0.00     0.000 S
ATOM     71   O  Z9K D   4      12.059  39.600  15.0250  0.00  0.00     0.000 OA
ATOM     72   O  Z9K D   4      11.075  41.682  15.4010  0.00  0.00     0.000 OA
ENDBRANCH 61 68
BRANCH 64 73
ATOM     73   C  Z9K D   4      15.764  40.048   9.7160  0.00  0.00     0.000 C
ATOM     74   O  Z9K D   4      17.015  39.870   9.7790  0.00  0.00     0.000 O
ATOM     75   O  Z9K D   4      15.246  40.051   8.5720  0.00  0.00     0.000 OA
ENDBRANCH 64 73
BRANCH 60 76
ATOM     76  O4  Z9L D   5      12.937  38.562  12.4050  0.00  0.00     0.000 O
BRANCH 76 80
ATOM     77  C1  Z9L D   5      11.188  35.061  11.5940  0.00  0.00     0.000 C
ATOM     78  C2  Z9L D   5      12.557  35.107  10.7590  0.00  0.00     0.000 C
ATOM     79  C3  Z9L D   5      13.498  36.338  11.4370  0.00  0.00     0.000 C
ATOM     80  C4  Z9L D   5      12.364  37.510  11.6720  0.00  0.00     0.000 C
ATOM     81  C5  Z9L D   5      10.883  37.432  12.3050  0.00  0.00     0.000 C
ATOM     82  O5  Z9L D   5      10.291  36.226  11.7990  0.00  0.00     0.000 O
ATOM     83   C  Z9L D   5      10.311  34.323  13.7340  0.00  0.00     0.000 C
ATOM     84   C  Z9L D   5      10.311  34.323  13.7340  0.00  0.00     0.000 C
BRANCH 78 85
ATOM     85   O  Z9L D   5      13.208  33.889  10.9290  0.00  0.00     0.000 O
ATOM     86   O  Z9L D   5      13.403  32.539   9.5690  0.00  0.00     0.000 OA
ATOM     87   S  Z9L D   5      12.847  33.842   9.3640  0.00  0.00     0.000 S
ATOM     88   O  Z9L D   5      13.799  34.528   8.5270  0.00  0.00     0.000 OA
ATOM     89   O  Z9L D   5      11.481  33.618   9.0360  0.00  0.00     0.000 OA
ENDBRANCH 78 85
BRANCH 79 90
ATOM     90   O  Z9L D   5      14.338  36.916  10.4890  0.00  0.00     0.000 O
ATOM     91   S  Z9L D   5      15.426  36.414  11.5380  0.00  0.00     0.000 S
ATOM     92   O  Z9L D   5      15.518  35.040  11.9550  0.00  0.00     0.000 OA
ATOM     93   O  Z9L D   5      15.742  37.488  12.4470  0.00  0.00     0.000 O
ATOM     94   O  Z9L D   5      16.267  36.567  10.3960  0.00  0.00     0.000 OA
ENDBRANCH 79 90
BRANCH 81 95
ATOM     95   C  Z9L D   5       9.968  38.837  12.2960  0.00  0.00     0.000 C
ATOM     96   S  Z9L D   5       8.473  39.799  11.3970  0.00  0.00     0.000 S
ATOM     97   O  Z9L D   5       9.639  38.847  10.9330  0.00  0.00     0.000 O
ATOM     98   O  Z9L D   5       9.078  41.064  11.7290  0.00  0.00     0.000 OA
ATOM     99   O  Z9L D   5       7.487  39.206  12.2350  0.00  0.00     0.000 OA
ATOM    100   O  Z9L D   5       8.194  39.785   9.9820  0.00  0.00     0.000 O
ENDBRANCH 81 95
ENDBRANCH 76 80
ENDBRANCH 60 76
ENDBRANCH 59 63
ENDBRANCH 37 59
ENDBRANCH 36 40
ENDBRANCH 23 36
ENDBRANCH 22 26
ENDBRANCH 1 22
TORSDOF 19
ENDMDL
MODEL 21
REMARK VINA RESULT:      -4.0      6.970     13.259
ROOT
ATOM      1  C1  Z9H D   1      24.874  33.980   5.9830  0.00  0.00     0.000 C
ATOM      2  C2  Z9H D   1      26.156  34.830   6.1460  0.00  0.00     0.000 C
ATOM      3  C3  Z9H D   1      25.630  35.820   7.2300  0.00  0.00     0.000 C
ATOM      4  C4  Z9H D   1      24.240  36.507   6.9040  0.00  0.00     0.000 C
ATOM      5  C5  Z9H D   1      22.977  35.705   6.3940  0.00  0.00     0.000 C
ATOM      6  O5  Z9H D   1      23.603  34.616   5.6700  0.00  0.00     0.000 O
ATOM      7   O  Z9H D   1      26.608  36.809   7.5590  0.00  0.00     0.000 O
ATOM      8   C  Z9H D   1      27.371  36.548   8.7490  0.00  0.00     0.000 C
ATOM      9   O  Z9H D   1      23.852  37.187   8.1030  0.00  0.00     0.000 O
ATOM     10   C  Z9H D   1      24.123  38.592   8.1320  0.00  0.00     0.000 C
ENDROOT
BRANCH 2 11
ATOM     11   O  Z9H D   1      27.005  33.950   6.8350  0.00  0.00     0.000 O
ATOM     12   O  Z9H D   1      28.596  33.234   6.1190  0.00  0.00     0.000 OA
ATOM     13   S  Z9H D   1      27.752  34.164   5.4490  0.00  0.00     0.000 S
ATOM     14   O  Z9H D   1      28.271  35.502   5.4190  0.00  0.00     0.000 OA
ATOM     15   O  Z9H D   1      27.054  33.519   4.3610  0.00  0.00     0.000 O
ENDBRANCH 2 11
BRANCH 5 16
ATOM     16   C  Z9H D   1      21.778  36.639   5.6950  0.00  0.00     0.000 C
ATOM     17   S  Z9H D   1      19.910  37.340   5.9350  0.00  0.00     0.000 S
ATOM     18   O  Z9H D   1      21.201  37.130   6.8810  0.00  0.00     0.000 O
ATOM     19   O  Z9H D   1      19.294  36.127   5.4780  0.00  0.00     0.000 O
ATOM     20   O  Z9H D   1      20.087  38.483   5.1090  0.00  0.00     0.000 OA
ATOM     21   O  Z9H D   1      19.361  37.783   7.1830  0.00  0.00     0.000 OA
ENDBRANCH 5 16
BRANCH 1 22
ATOM     22  O4  GU1 D   2      24.496  33.196   7.1710  0.00  0.00     0.000 O
BRANCH 22 26
ATOM     23  C1  GU1 D   2      22.965  29.639   8.5780  0.00  0.00     0.000 C
ATOM     24  C2  GU1 D   2      24.039  29.496   7.5100  0.00  0.00     0.000 C
ATOM     25  C3  GU1 D   2      24.772  30.798   7.3630  0.00  0.00     0.000 C
ATOM     26  C4  GU1 D   2      23.801  31.944   7.1210  0.00  0.00     0.000 C
ATOM     27  C5  GU1 D   2      22.703  31.936   8.1900  0.00  0.00     0.000 C
ATOM     28  O5  GU1 D   2      22.051  30.670   8.2250  0.00  0.00     0.000 O
ATOM     29   O  GU1 D   2      24.986  28.487   7.8390  0.00  0.00     0.000 O
ATOM     30   C  GU1 D   2      24.722  27.230   7.2330  0.00  0.00     0.000 C
ATOM     31   C  GU1 D   2      27.021  30.485   6.5670  0.00  0.00     0.000 C
ATOM     32   O  GU1 D   2      25.651  30.698   6.2380  0.00  0.00     0.000 O
BRANCH 27 33
ATOM     33   C  GU1 D   2      21.658  32.989   7.9070  0.00  0.00     0.000 C
ATOM     34   O  GU1 D   2      21.517  33.892   8.7050  0.00  0.00     0.000 OA
ATOM     35   O  GU1 D   2      20.975  32.930   6.8960  0.00  0.00     0.000 O
ENDBRANCH 27 33
BRANCH 23 36
ATOM     36  O4  GU6 D   3      21.965  28.614   8.7370  0.00  0.00     0.000 O
BRANCH 36 40
ATOM     37  C1  GU6 D   3      19.881  25.201   9.5740  0.00  0.00     0.000 C
ATOM     38  C2  GU6 D   3      19.683  25.714   8.1530  0.00  0.00     0.000 C
ATOM     39  C3  GU6 D   3      20.688  26.798   7.8630  0.00  0.00     0.000 C
ATOM     40  C4  GU6 D   3      21.481  27.309   8.9860  0.00  0.00     0.000 C
ATOM     41  C5  GU6 D   3      20.586  27.386  10.2670  0.00  0.00     0.000 C
ATOM     42  O5  GU6 D   3      19.698  26.282  10.4750  0.00  0.00     0.000 O
BRANCH 38 43
ATOM     43   O  GU6 D   3      19.825  24.660   7.2200  0.00  0.00     0.000 O
ATOM     44   S  GU6 D   3      18.512  24.027   6.7810  0.00  0.00     0.000 S
ATOM     45   O  GU6 D   3      18.096  23.053   7.8050  0.00  0.00     0.000 OA
ATOM     46   O  GU6 D   3      17.492  25.086   6.6690  0.00  0.00     0.000 O
ATOM     47   O  GU6 D   3      18.709  23.384   5.4850  0.00  0.00     0.000 OA
ENDBRANCH 38 43
BRANCH 39 48
ATOM     48   O  GU6 D   3      21.019  27.143   6.5320  0.00  0.00     0.000 O
ATOM     49   S  GU6 D   3      20.268  28.018   5.5290  0.00  0.00     0.000 S
ATOM     50   O  GU6 D   3      20.014  29.343   6.1050  0.00  0.00     0.000 OA
ATOM     51   O  GU6 D   3      21.199  28.100   4.3960  0.00  0.00     0.000 OA
ATOM     52   O  GU6 D   3      18.987  27.361   5.1860  0.00  0.00     0.000 O
ENDBRANCH 39 48
BRANCH 41 53
ATOM     53   C  GU6 D   3      20.536  28.455  11.3250  0.00  0.00     0.000 C
ATOM     54   O  GU6 D   3      19.149  28.676  11.3080  0.00  0.00     0.000 O
ATOM     55   S  GU6 D   3      18.528  29.795  12.1550  0.00  0.00     0.000 S
ATOM     56   O  GU6 D   3      19.022  31.076  11.5990  0.00  0.00     0.000 O
ATOM     57   O  GU6 D   3      17.065  29.709  12.0440  0.00  0.00     0.000 OA
ATOM     58   O  GU6 D   3      18.996  29.603  13.5460  0.00  0.00     0.000 OA
ENDBRANCH 41 53
BRANCH 37 59
ATOM     59  O4  Z9K D   4      21.025  24.449  10.0320  0.00  0.00     0.000 O
BRANCH 59 63
ATOM     60  C1  Z9K D   4      20.179  20.708   9.1750  0.00  0.00     0.000 C
ATOM     61  C2  Z9K D   4      19.560  20.839  10.5940  0.00  0.00     0.000 C
ATOM     62  C3  Z9K D   4      19.740  22.397  10.8590  0.00  0.00     0.000 C
ATOM     63  C4  Z9K D   4      21.120  23.079  10.5180  0.00  0.00     0.000 C
ATOM     64  C5  Z9K D   4      21.957  22.399   9.4240  0.00  0.00     0.000 C
ATOM     65  O5  Z9K D   4      20.945  21.839   8.5460  0.00  0.00     0.000 O
ATOM     66   O  Z9K D   4      19.464  22.778  12.2180  0.00  0.00     0.000 O
ATOM     67   C  Z9K D   4      18.096  23.030  12.4900  0.00  0.00     0.000 C
BRANCH 61 68
ATOM     68   O  Z9K D   4      18.182  20.619  10.4630  0.00  0.00     0.000 O
ATOM     69   O  Z9K D   4      19.033  19.826  12.7420  0.00  0.00     0.000 OA
ATOM     70   S  Z9K D   4      18.624  19.403  11.4370  0.00  0.00     0.000 S
ATOM     71   O  Z9K D   4      19.252  18.383  10.6540  0.00  0.00     0.000 OA
ATOM     72   O  Z9K D   4      17.207  19.246  11.3730  0.00  0.00     0.000 OA
ENDBRANCH 61 68
BRANCH 64 73
ATOM     73   C  Z9K D   4      22.991  23.381   8.8340  0.00  0.00     0.000 C
ATOM     74   O  Z9K D   4      22.873  23.827   7.6560  0.00  0.00     0.000 O
ATOM     75   O  Z9K D   4      23.980  23.778   9.4980  0.00  0.00     0.000 OA
ENDBRANCH 64 73
BRANCH 60 76
ATOM     76  O4  Z9L D   5      21.056  19.684   8.6740  0.00  0.00     0.000 O
BRANCH 76 80
ATOM     77  C1  Z9L D   5      21.747  17.163   5.6510  0.00  0.00     0.000 C
ATOM     78  C2  Z9L D   5      22.934  18.242   5.6430  0.00  0.00     0.000 C
ATOM     79  C3  Z9L D   5      22.906  19.005   7.1530  0.00  0.00     0.000 C
ATOM     80  C4  Z9L D   5      21.287  19.217   7.3690  0.00  0.00     0.000 C
ATOM     81  C5  Z9L D   5      20.052  18.201   7.1570  0.00  0.00     0.000 C
ATOM     82  O5  Z9L D   5      20.327  17.480   5.9470  0.00  0.00     0.000 O
ATOM     83   C  Z9L D   5      21.191  14.981   6.5560  0.00  0.00     0.000 C
ATOM     84   C  Z9L D   5      21.191  14.981   6.5560  0.00  0.00     0.000 C
BRANCH 78 85
ATOM     85   O  Z9L D   5      24.138  17.559   5.5000  0.00  0.00     0.000 O
ATOM     86   O  Z9L D   5      25.226  17.556   3.9110  0.00  0.00     0.000 OA
ATOM     87   S  Z9L D   5      24.055  18.355   4.1060  0.00  0.00     0.000 S
ATOM     88   O  Z9L D   5      24.537  19.712   4.1830  0.00  0.00     0.000 OA
ATOM     89   O  Z9L D   5      23.111  17.874   3.1570  0.00  0.00     0.000 OA
ENDBRANCH 78 85
BRANCH 79 90
ATOM     90   O  Z9L D   5      23.374  20.313   7.0680  0.00  0.00     0.000 O
ATOM     91   S  Z9L D   5      24.434  19.716   8.0960  0.00  0.00     0.000 S
ATOM     92   O  Z9L D   5      25.235  18.560   7.7920  0.00  0.00     0.000 OA
ATOM     93   O  Z9L D   5      23.993  19.979   9.4430  0.00  0.00     0.000 O
ATOM     94   O  Z9L D   5      25.163  20.863   7.6600  0.00  0.00     0.000 OA
ENDBRANCH 79 90
BRANCH 81 95
ATOM     95   C  Z9L D   5      18.507  18.809   7.3930  0.00  0.00     0.000 C
ATOM     96   S  Z9L D   5      16.921  19.612   6.4950  0.00  0.00     0.000 S
ATOM     97   O  Z9L D   5      18.483  19.704   6.3130  0.00  0.00     0.000 O
ATOM     98   O  Z9L D   5      16.600  20.339   7.6960  0.00  0.00     0.000 OA
ATOM     99   O  Z9L D   5      16.339  18.342   6.2190  0.00  0.00     0.000 OA
ATOM    100   O  Z9L D   5      16.959  20.544   5.3950  0.00  0.00     0.000 O
ENDBRANCH 81 95
ENDBRANCH 76 80
ENDBRANCH 60 76
ENDBRANCH 59 63
ENDBRANCH 37 59
ENDBRANCH 36 40
ENDBRANCH 23 36
ENDBRANCH 22 26
ENDBRANCH 1 22
TORSDOF 19
ENDMDL
MODEL 22
REMARK VINA RESULT:      -4.0     15.512     22.162
ROOT
ATOM      1  C1  Z9H D   1      15.003  45.885   7.1310  0.00  0.00     0.000 C
ATOM      2  C2  Z9H D   1      16.246  45.745   6.2200  0.00  0.00     0.000 C
ATOM      3  C3  Z9H D   1      17.060  46.957   6.7670  0.00  0.00     0.000 C
ATOM      4  C4  Z9H D   1      16.267  48.327   6.8490  0.00  0.00     0.000 C
ATOM      5  C5  Z9H D   1      14.821  48.452   7.4750  0.00  0.00     0.000 C
ATOM      6  O5  Z9H D   1      14.271  47.141   7.1910  0.00  0.00     0.000 O
ATOM      7   O  Z9H D   1      18.285  47.134   6.0520  0.00  0.00     0.000 O
ATOM      8   C  Z9H D   1      19.452  46.584   6.6850  0.00  0.00     0.000 C
ATOM      9   O  Z9H D   1      17.118  49.226   7.5680  0.00  0.00     0.000 O
ATOM     10   C  Z9H D   1      17.874  50.136   6.7640  0.00  0.00     0.000 C
ENDROOT
BRANCH 2 11
ATOM     11   O  Z9H D   1      16.874  44.610   6.7560  0.00  0.00     0.000 O
ATOM     12   O  Z9H D   1      17.088  42.981   5.8300  0.00  0.00     0.000 OA
ATOM     13   S  Z9H D   1      16.495  44.154   5.2820  0.00  0.00     0.000 S
ATOM     14   O  Z9H D   1      17.342  44.856   4.3600  0.00  0.00     0.000 OA
ATOM     15   O  Z9H D   1      15.069  43.974   5.1300  0.00  0.00     0.000 O
ENDBRANCH 2 11
BRANCH 5 16
ATOM     16   C  Z9H D   1      13.993  49.849   7.0710  0.00  0.00     0.000 C
ATOM     17   S  Z9H D   1      13.101  50.838   5.5660  0.00  0.00     0.000 S
ATOM     18   O  Z9H D   1      13.176  49.304   6.0630  0.00  0.00     0.000 O
ATOM     19   O  Z9H D   1      14.333  51.367   5.0560  0.00  0.00     0.000 O
ATOM     20   O  Z9H D   1      12.218  51.580   6.3960  0.00  0.00     0.000 OA
ATOM     21   O  Z9H D   1      12.317  50.219   4.5370  0.00  0.00     0.000 OA
ENDBRANCH 5 16
BRANCH 1 22
ATOM     22  O4  GU1 D   2      15.257  45.655   8.5640  0.00  0.00     0.000 O
BRANCH 22 26
ATOM     23  C1  GU1 D   2      13.771  43.976  12.0210  0.00  0.00     0.000 C
ATOM     24  C2  GU1 D   2      13.438  43.216  10.7460  0.00  0.00     0.000 C
ATOM     25  C3  GU1 D   2      14.331  43.691   9.6360  0.00  0.00     0.000 C
ATOM     26  C4  GU1 D   2      14.266  45.205   9.4950  0.00  0.00     0.000 C
ATOM     27  C5  GU1 D   2      14.512  45.869  10.8520  0.00  0.00     0.000 C
ATOM     28  O5  GU1 D   2      13.595  45.374  11.8240  0.00  0.00     0.000 O
ATOM     29   O  GU1 D   2      13.624  41.814  10.8980  0.00  0.00     0.000 O
ATOM     30   C  GU1 D   2      12.432  41.106  11.2050  0.00  0.00     0.000 C
ATOM     31   C  GU1 D   2      14.670  41.996   7.9600  0.00  0.00     0.000 C
ATOM     32   O  GU1 D   2      13.885  43.097   8.4120  0.00  0.00     0.000 O
BRANCH 27 33
ATOM     33   C  GU1 D   2      14.335  47.366  10.7680  0.00  0.00     0.000 C
ATOM     34   O  GU1 D   2      13.221  47.806  10.5660  0.00  0.00     0.000 OA
ATOM     35   O  GU1 D   2      15.291  48.114  10.9050  0.00  0.00     0.000 O
ENDBRANCH 27 33
BRANCH 23 36
ATOM     36  O4  GU6 D   3      12.899  43.885  13.1640  0.00  0.00     0.000 O
BRANCH 36 40
ATOM     37  C1  GU6 D   3      10.350  42.591  16.0840  0.00  0.00     0.000 C
ATOM     38  C2  GU6 D   3      10.156  44.052  15.6970  0.00  0.00     0.000 C
ATOM     39  C3  GU6 D   3      10.940  44.351  14.4450  0.00  0.00     0.000 C
ATOM     40  C4  GU6 D   3      11.879  43.329  13.9690  0.00  0.00     0.000 C
ATOM     41  C5  GU6 D   3      12.576  42.648  15.1930  0.00  0.00     0.000 C
ATOM     42  O5  GU6 D   3      11.732  42.364  16.3140  0.00  0.00     0.000 O
BRANCH 38 43
ATOM     43   O  GU6 D   3       8.786  44.334  15.4870  0.00  0.00     0.000 O
ATOM     44   S  GU6 D   3       8.241  45.475  16.3360  0.00  0.00     0.000 S
ATOM     45   O  GU6 D   3       7.921  44.951  17.6750  0.00  0.00     0.000 OA
ATOM     46   O  GU6 D   3       9.281  46.513  16.4520  0.00  0.00     0.000 O
ATOM     47   O  GU6 D   3       7.057  46.023  15.6830  0.00  0.00     0.000 OA
ENDBRANCH 38 43
BRANCH 39 48
ATOM     48   O  GU6 D   3      10.617  45.464  13.6340  0.00  0.00     0.000 O
ATOM     49   S  GU6 D   3       9.748  45.544  12.3800  0.00  0.00     0.000 S
ATOM     50   O  GU6 D   3       8.412  45.004  12.6560  0.00  0.00     0.000 OA
ATOM     51   O  GU6 D   3       9.692  46.987  12.1050  0.00  0.00     0.000 OA
ATOM     52   O  GU6 D   3      10.394  44.769  11.2980  0.00  0.00     0.000 O
ENDBRANCH 39 48
BRANCH 41 53
ATOM     53   C  GU6 D   3      14.014  42.235  15.3540  0.00  0.00     0.000 C
ATOM     54   O  GU6 D   3      14.035  41.230  14.3730  0.00  0.00     0.000 O
ATOM     55   S  GU6 D   3      15.284  40.360  14.1770  0.00  0.00     0.000 S
ATOM     56   O  GU6 D   3      15.438  39.551  15.4080  0.00  0.00     0.000 O
ATOM     57   O  GU6 D   3      15.071  39.493  13.0090  0.00  0.00     0.000 OA
ATOM     58   O  GU6 D   3      16.432  41.275  13.9930  0.00  0.00     0.000 OA
ENDBRANCH 41 53
BRANCH 37 59
ATOM     59  O4  Z9K D   4       9.847  41.463  15.3380  0.00  0.00     0.000 O
BRANCH 59 63
ATOM     60  C1  Z9K D   4       7.310  38.797  13.9580  0.00  0.00     0.000 C
ATOM     61  C2  Z9K D   4       6.427  39.545  14.9950  0.00  0.00     0.000 C
ATOM     62  C3  Z9K D   4       7.396  40.734  15.4140  0.00  0.00     0.000 C
ATOM     63  C4  Z9K D   4       8.908  40.418  15.7270  0.00  0.00     0.000 C
ATOM     64  C5  Z9K D   4       9.494  39.176  15.0380  0.00  0.00     0.000 C
ATOM     65  O5  Z9K D   4       8.767  39.130  13.7830  0.00  0.00     0.000 O
ATOM     66   O  Z9K D   4       6.928  41.472  16.5570  0.00  0.00     0.000 O
ATOM     67   C  Z9K D   4       6.012  42.510  16.2500  0.00  0.00     0.000 C
BRANCH 61 68
ATOM     68   O  Z9K D   4       5.369  40.131  14.2860  0.00  0.00     0.000 O
ATOM     69   O  Z9K D   4       4.635  39.431  16.6360  0.00  0.00     0.000 OA
ATOM     70   S  Z9K D   4       4.590  39.085  15.2470  0.00  0.00     0.000 S
ATOM     71   O  Z9K D   4       4.728  37.766  14.7100  0.00  0.00     0.000 OA
ATOM     72   O  Z9K D   4       3.516  39.756  14.5900  0.00  0.00     0.000 OA
ENDBRANCH 61 68
BRANCH 64 73
ATOM     73   C  Z9K D   4      11.036  39.246  15.0000  0.00  0.00     0.000 C
ATOM     74   O  Z9K D   4      11.721  39.177  16.0620  0.00  0.00     0.000 O
ATOM     75   O  Z9K D   4      11.666  39.365  13.9210  0.00  0.00     0.000 OA
ENDBRANCH 64 73
BRANCH 60 76
ATOM     76  O4  Z9L D   5       7.498  37.380  13.8000  0.00  0.00     0.000 O
BRANCH 76 80
ATOM     77  C1  Z9L D   5       7.715  34.428  11.1150  0.00  0.00     0.000 C
ATOM     78  C2  Z9L D   5       9.143  34.509  11.8400  0.00  0.00     0.000 C
ATOM     79  C3  Z9L D   5       8.920  35.411  13.2540  0.00  0.00     0.000 C
ATOM     80  C4  Z9L D   5       7.942  36.619  12.7070  0.00  0.00     0.000 C
ATOM     81  C5  Z9L D   5       6.624  36.570  11.7790  0.00  0.00     0.000 C
ATOM     82  O5  Z9L D   5       6.891  35.608  10.7480  0.00  0.00     0.000 O
ATOM     83   C  Z9L D   5       5.572  33.300  11.2960  0.00  0.00     0.000 C
ATOM     84   C  Z9L D   5       5.572  33.300  11.2960  0.00  0.00     0.000 C
BRANCH 78 85
ATOM     85   O  Z9L D   5       9.529  33.216  12.1800  0.00  0.00     0.000 O
ATOM     86   O  Z9L D   5      10.968  32.237  11.3540  0.00  0.00     0.000 OA
ATOM     87   S  Z9L D   5      10.649  33.608  11.0960  0.00  0.00     0.000 S
ATOM     88   O  Z9L D   5      11.751  34.359  11.6440  0.00  0.00     0.000 OA
ATOM     89   O  Z9L D   5      10.229  33.646   9.7370  0.00  0.00     0.000 OA
ENDBRANCH 78 85
BRANCH 79 90
ATOM     90   O  Z9L D   5      10.079  36.096  13.6070  0.00  0.00     0.000 O
ATOM     91   S  Z9L D   5       9.864  35.236  14.9300  0.00  0.00     0.000 S
ATOM     92   O  Z9L D   5       9.760  33.800  14.9070  0.00  0.00     0.000 OA
ATOM     93   O  Z9L D   5       9.129  36.017  15.8930  0.00  0.00     0.000 O
ATOM     94   O  Z9L D   5      11.245  35.557  15.0910  0.00  0.00     0.000 OA
ENDBRANCH 79 90
BRANCH 81 95
ATOM     95   C  Z9L D   5       5.934  38.036  11.3450  0.00  0.00     0.000 C
ATOM     96   S  Z9L D   5       5.851  39.440   9.9350  0.00  0.00     0.000 S
ATOM     97   O  Z9L D   5       6.971  38.505  10.5260  0.00  0.00     0.000 O
ATOM     98   O  Z9L D   5       5.573  40.438  10.9350  0.00  0.00     0.000 OA
ATOM     99   O  Z9L D   5       4.800  38.781   9.2350  0.00  0.00     0.000 OA
ATOM    100   O  Z9L D   5       6.960  39.894   9.1330  0.00  0.00     0.000 O
ENDBRANCH 81 95
ENDBRANCH 76 80
ENDBRANCH 60 76
ENDBRANCH 59 63
ENDBRANCH 37 59
ENDBRANCH 36 40
ENDBRANCH 23 36
ENDBRANCH 22 26
ENDBRANCH 1 22
TORSDOF 19
ENDMDL
MODEL 23
REMARK VINA RESULT:      -3.9     12.794     20.147
ROOT
ATOM      1  C1  Z9H D   1      24.854  40.429   8.6320  0.00  0.00     0.000 C
ATOM      2  C2  Z9H D   1      26.220  40.433   7.9050  0.00  0.00     0.000 C
ATOM      3  C3  Z9H D   1      25.909  39.333   6.8430  0.00  0.00     0.000 C
ATOM      4  C4  Z9H D   1      25.303  37.987   7.4180  0.00  0.00     0.000 C
ATOM      5  C5  Z9H D   1      24.107  37.949   8.4510  0.00  0.00     0.000 C
ATOM      6  O5  Z9H D   1      24.309  39.192   9.1700  0.00  0.00     0.000 O
ATOM      7   O  Z9H D   1      27.046  39.056   6.0240  0.00  0.00     0.000 O
ATOM      8   C  Z9H D   1      27.060  39.713   4.7460  0.00  0.00     0.000 C
ATOM      9   O  Z9H D   1      24.898  37.224   6.2760  0.00  0.00     0.000 O
ATOM     10   C  Z9H D   1      25.812  36.204   5.8600  0.00  0.00     0.000 C
ENDROOT
BRANCH 2 11
ATOM     11   O  Z9H D   1      26.171  41.646   7.2000  0.00  0.00     0.000 O
ATOM     12   O  Z9H D   1      27.315  43.109   7.5290  0.00  0.00     0.000 OA
ATOM     13   S  Z9H D   1      27.384  41.857   8.2040  0.00  0.00     0.000 S
ATOM     14   O  Z9H D   1      28.474  41.027   7.7760  0.00  0.00     0.000 OA
ATOM     15   O  Z9H D   1      26.930  41.994   9.5680  0.00  0.00     0.000 O
ENDBRANCH 2 11
BRANCH 5 16
ATOM     16   C  Z9H D   1      23.915  36.497   9.2600  0.00  0.00     0.000 C
ATOM     17   S  Z9H D   1      22.571  35.115   9.8310  0.00  0.00     0.000 S
ATOM     18   O  Z9H D   1      22.836  35.999   8.5060  0.00  0.00     0.000 O
ATOM     19   O  Z9H D   1      22.148  35.863  10.9800  0.00  0.00     0.000 O
ATOM     20   O  Z9H D   1      23.502  34.042   9.8990  0.00  0.00     0.000 OA
ATOM     21   O  Z9H D   1      21.461  34.681   9.0350  0.00  0.00     0.000 OA
ENDBRANCH 5 16
BRANCH 1 22
ATOM     22  O4  GU1 D   2      23.717  40.890   7.8170  0.00  0.00     0.000 O
BRANCH 22 26
ATOM     23  C1  GU1 D   2      20.203  43.038   7.7360  0.00  0.00     0.000 C
ATOM     24  C2  GU1 D   2      21.384  43.768   8.3560  0.00  0.00     0.000 C
ATOM     25  C3  GU1 D   2      22.656  43.060   7.9870  0.00  0.00     0.000 C
ATOM     26  C4  GU1 D   2      22.579  41.582   8.3430  0.00  0.00     0.000 C
ATOM     27  C5  GU1 D   2      21.303  40.968   7.7590  0.00  0.00     0.000 C
ATOM     28  O5  GU1 D   2      20.156  41.692   8.1960  0.00  0.00     0.000 O
ATOM     29   O  GU1 D   2      21.477  45.113   7.9030  0.00  0.00     0.000 O
ATOM     30   C  GU1 D   2      20.890  46.059   8.7850  0.00  0.00     0.000 C
ATOM     31   C  GU1 D   2      24.547  44.548   7.9690  0.00  0.00     0.000 C
ATOM     32   O  GU1 D   2      23.732  43.652   8.7210  0.00  0.00     0.000 O
BRANCH 27 33
ATOM     33   C  GU1 D   2      21.138  39.532   8.1970  0.00  0.00     0.000 C
ATOM     34   O  GU1 D   2      21.090  38.670   7.3440  0.00  0.00     0.000 OA
ATOM     35   O  GU1 D   2      21.059  39.250   9.3820  0.00  0.00     0.000 O
ENDBRANCH 27 33
BRANCH 23 36
ATOM     36  O4  GU6 D   3      18.859  43.370   8.1380  0.00  0.00     0.000 O
BRANCH 36 40
ATOM     37  C1  GU6 D   3      15.308  43.490  10.1550  0.00  0.00     0.000 C
ATOM     38  C2  GU6 D   3      15.260  44.144   8.7800  0.00  0.00     0.000 C
ATOM     39  C3  GU6 D   3      16.517  43.810   8.0190  0.00  0.00     0.000 C
ATOM     40  C4  GU6 D   3      17.605  43.156   8.7530  0.00  0.00     0.000 C
ATOM     41  C5  GU6 D   3      17.692  43.750  10.1980  0.00  0.00     0.000 C
ATOM     42  O5  GU6 D   3      16.440  43.986  10.8530  0.00  0.00     0.000 O
BRANCH 38 43
ATOM     43   O  GU6 D   3      14.127  43.702   8.0580  0.00  0.00     0.000 O
ATOM     44   S  GU6 D   3      13.047  44.760   7.8720  0.00  0.00     0.000 S
ATOM     45   O  GU6 D   3      12.234  44.820   9.0990  0.00  0.00     0.000 OA
ATOM     46   O  GU6 D   3      13.699  46.064   7.6530  0.00  0.00     0.000 O
ATOM     47   O  GU6 D   3      12.235  44.405   6.7120  0.00  0.00     0.000 OA
ENDBRANCH 38 43
BRANCH 39 48
ATOM     48   O  GU6 D   3      16.559  43.909   6.6080  0.00  0.00     0.000 O
ATOM     49   S  GU6 D   3      16.309  42.843   5.5420  0.00  0.00     0.000 S
ATOM     50   O  GU6 D   3      14.989  42.232   5.7380  0.00  0.00     0.000 OA
ATOM     51   O  GU6 D   3      16.360  43.607   4.2890  0.00  0.00     0.000 OA
ATOM     52   O  GU6 D   3      17.365  41.810   5.6400  0.00  0.00     0.000 O
ENDBRANCH 39 48
BRANCH 41 53
ATOM     53   C  GU6 D   3      18.912  44.097  11.0080  0.00  0.00     0.000 C
ATOM     54   O  GU6 D   3      18.437  43.674  12.2600  0.00  0.00     0.000 O
ATOM     55   S  GU6 D   3      19.270  43.906  13.5270  0.00  0.00     0.000 S
ATOM     56   O  GU6 D   3      19.337  45.371  13.7330  0.00  0.00     0.000 O
ATOM     57   O  GU6 D   3      18.595  43.252  14.6570  0.00  0.00     0.000 OA
ATOM     58   O  GU6 D   3      20.616  43.342  13.2770  0.00  0.00     0.000 OA
ENDBRANCH 41 53
BRANCH 37 59
ATOM     59  O4  Z9K D   4      15.240  42.070  10.4010  0.00  0.00     0.000 O
BRANCH 59 63
ATOM     60  C1  Z9K D   4      14.820  38.841  12.6030  0.00  0.00     0.000 C
ATOM     61  C2  Z9K D   4      15.120  39.910  13.6900  0.00  0.00     0.000 C
ATOM     62  C3  Z9K D   4      15.106  41.240  12.8170  0.00  0.00     0.000 C
ATOM     63  C4  Z9K D   4      15.868  41.261  11.4370  0.00  0.00     0.000 C
ATOM     64  C5  Z9K D   4      16.036  39.903  10.7380  0.00  0.00     0.000 C
ATOM     65  O5  Z9K D   4      14.839  39.185  11.1380  0.00  0.00     0.000 O
ATOM     66   O  Z9K D   4      15.596  42.391  13.5270  0.00  0.00     0.000 O
ATOM     67   C  Z9K D   4      14.618  43.057  14.3090  0.00  0.00     0.000 C
BRANCH 61 68
ATOM     68   O  Z9K D   4      13.997  39.975  14.5240  0.00  0.00     0.000 O
ATOM     69   O  Z9K D   4      16.150  40.416  15.8350  0.00  0.00     0.000 OA
ATOM     70   S  Z9K D   4      15.140  39.445  15.5420  0.00  0.00     0.000 S
ATOM     71   O  Z9K D   4      15.362  38.051  15.3070  0.00  0.00     0.000 OA
ATOM     72   O  Z9K D   4      14.013  39.607  16.4030  0.00  0.00     0.000 OA
ENDBRANCH 61 68
BRANCH 64 73
ATOM     73   C  Z9K D   4      16.320  40.092   9.2330  0.00  0.00     0.000 C
ATOM     74   O  Z9K D   4      15.389  40.361   8.4190  0.00  0.00     0.000 O
ATOM     75   O  Z9K D   4      17.478  39.992   8.7610  0.00  0.00     0.000 OA
ENDBRANCH 64 73
BRANCH 60 76
ATOM     76  O4  Z9L D   5      15.428  37.551  12.4250  0.00  0.00     0.000 O
BRANCH 76 80
ATOM     77  C1  Z9L D   5      14.639  33.724  11.5860  0.00  0.00     0.000 C
ATOM     78  C2  Z9L D   5      15.621  34.264  10.4380  0.00  0.00     0.000 C
ATOM     79  C3  Z9L D   5      16.311  35.693  11.0220  0.00  0.00     0.000 C
ATOM     80  C4  Z9L D   5      15.003  36.414  11.7180  0.00  0.00     0.000 C
ATOM     81  C5  Z9L D   5      13.869  35.819  12.6980  0.00  0.00     0.000 C
ATOM     82  O5  Z9L D   5      13.539  34.518  12.1900  0.00  0.00     0.000 O
ATOM     83   C  Z9L D   5      14.694  32.617  13.7450  0.00  0.00     0.000 C
ATOM     84   C  Z9L D   5      14.694  32.617  13.7450  0.00  0.00     0.000 C
BRANCH 78 85
ATOM     85   O  Z9L D   5      16.624  33.317  10.2480  0.00  0.00     0.000 O
ATOM     86   O  Z9L D   5      16.799  32.186   8.6990  0.00  0.00     0.000 OA
ATOM     87   S  Z9L D   5      15.846  33.244   8.8440  0.00  0.00     0.000 S
ATOM     88   O  Z9L D   5      16.259  34.251   7.8970  0.00  0.00     0.000 OA
ATOM     89   O  Z9L D   5      14.575  32.605   8.8560  0.00  0.00     0.000 OA
ENDBRANCH 78 85
BRANCH 79 90
ATOM     90   O  Z9L D   5      16.622  36.567   9.9850  0.00  0.00     0.000 O
ATOM     91   S  Z9L D   5      18.063  36.414  10.6450  0.00  0.00     0.000 S
ATOM     92   O  Z9L D   5      18.695  35.134  10.8270  0.00  0.00     0.000 OA
ATOM     93   O  Z9L D   5      18.273  37.485  11.5870  0.00  0.00     0.000 O
ATOM     94   O  Z9L D   5      18.453  36.900   9.3610  0.00  0.00     0.000 OA
ENDBRANCH 79 90
BRANCH 81 95
ATOM     95   C  Z9L D   5      12.618  36.846  13.1390  0.00  0.00     0.000 C
ATOM     96   S  Z9L D   5      10.725  37.350  12.7800  0.00  0.00     0.000 S
ATOM     97   O  Z9L D   5      11.947  36.875  11.9080  0.00  0.00     0.000 O
ATOM     98   O  Z9L D   5      11.002  38.706  13.1800  0.00  0.00     0.000 OA
ATOM     99   O  Z9L D   5      10.216  36.394  13.7050  0.00  0.00     0.000 OA
ATOM    100   O  Z9L D   5      10.092  37.378  11.4850  0.00  0.00     0.000 O
ENDBRANCH 81 95
ENDBRANCH 76 80
ENDBRANCH 60 76
ENDBRANCH 59 63
ENDBRANCH 37 59
ENDBRANCH 36 40
ENDBRANCH 23 36
ENDBRANCH 22 26
ENDBRANCH 1 22
TORSDOF 19
ENDMDL
MODEL 24
REMARK VINA RESULT:      -3.9     16.142     23.546
ROOT
ATOM      1  C1  Z9H D   1      14.665  45.572   7.0320  0.00  0.00     0.000 C
ATOM      2  C2  Z9H D   1      16.059  45.451   6.3720  0.00  0.00     0.000 C
ATOM      3  C3  Z9H D   1      16.711  46.724   6.9940  0.00  0.00     0.000 C
ATOM      4  C4  Z9H D   1      15.864  48.056   6.8580  0.00  0.00     0.000 C
ATOM      5  C5  Z9H D   1      14.323  48.140   7.2010  0.00  0.00     0.000 C
ATOM      6  O5  Z9H D   1      13.886  46.793   6.8910  0.00  0.00     0.000 O
ATOM      7   O  Z9H D   1      18.038  46.927   6.5070  0.00  0.00     0.000 O
ATOM      8   C  Z9H D   1      19.089  46.462   7.3710  0.00  0.00     0.000 C
ATOM      9   O  Z9H D   1      16.531  49.026   7.6720  0.00  0.00     0.000 O
ATOM     10   C  Z9H D   1      17.388  49.934   6.9730  0.00  0.00     0.000 C
ENDROOT
BRANCH 2 11
ATOM     11   O  Z9H D   1      16.621  44.372   7.0730  0.00  0.00     0.000 O
ATOM     12   O  Z9H D   1      17.040  42.706   6.2950  0.00  0.00     0.000 OA
ATOM     13   S  Z9H D   1      16.514  43.824   5.5860  0.00  0.00     0.000 S
ATOM     14   O  Z9H D   1      17.485  44.510   4.7810  0.00  0.00     0.000 OA
ATOM     15   O  Z9H D   1      15.142  43.579   5.2050  0.00  0.00     0.000 O
ENDBRANCH 2 11
BRANCH 5 16
ATOM     16   C  Z9H D   1      13.530  49.476   6.5800  0.00  0.00     0.000 C
ATOM     17   S  Z9H D   1      13.633  50.939   5.2050  0.00  0.00     0.000 S
ATOM     18   O  Z9H D   1      13.974  49.362   5.2490  0.00  0.00     0.000 O
ATOM     19   O  Z9H D   1      14.490  51.764   6.0080  0.00  0.00     0.000 O
ATOM     20   O  Z9H D   1      12.228  51.135   5.1110  0.00  0.00     0.000 OA
ATOM     21   O  Z9H D   1      14.141  50.772   3.8750  0.00  0.00     0.000 OA
ENDBRANCH 5 16
BRANCH 1 22
ATOM     22  O4  GU1 D   2      14.658  45.418   8.4980  0.00  0.00     0.000 O
BRANCH 22 26
ATOM     23  C1  GU1 D   2      12.641  43.919  11.7620  0.00  0.00     0.000 C
ATOM     24  C2  GU1 D   2      12.723  42.976  10.5720  0.00  0.00     0.000 C
ATOM     25  C3  GU1 D   2      13.779  43.462   9.6230  0.00  0.00     0.000 C
ATOM     26  C4  GU1 D   2      13.545  44.918   9.2490  0.00  0.00     0.000 C
ATOM     27  C5  GU1 D   2      13.374  45.764  10.5150  0.00  0.00     0.000 C
ATOM     28  O5  GU1 D   2      12.329  45.238  11.3280  0.00  0.00     0.000 O
ATOM     29   O  GU1 D   2      13.055  41.650  10.9660  0.00  0.00     0.000 O
ATOM     30   C  GU1 D   2      11.931  40.794  11.1110  0.00  0.00     0.000 C
ATOM     31   C  GU1 D   2      14.728  41.668   8.3280  0.00  0.00     0.000 C
ATOM     32   O  GU1 D   2      13.718  42.669   8.4330  0.00  0.00     0.000 O
BRANCH 27 33
ATOM     33   C  GU1 D   2      13.021  47.192  10.1740  0.00  0.00     0.000 C
ATOM     34   O  GU1 D   2      13.801  48.069  10.4830  0.00  0.00     0.000 OA
ATOM     35   O  GU1 D   2      11.976  47.453   9.5990  0.00  0.00     0.000 O
ENDBRANCH 27 33
BRANCH 23 36
ATOM     36  O4  GU6 D   3      11.545  43.815  12.6920  0.00  0.00     0.000 O
BRANCH 36 40
ATOM     37  C1  GU6 D   3       7.983  43.129  14.5730  0.00  0.00     0.000 C
ATOM     38  C2  GU6 D   3       8.445  44.580  14.6330  0.00  0.00     0.000 C
ATOM     39  C3  GU6 D   3       9.605  44.779  13.6930  0.00  0.00     0.000 C
ATOM     40  C4  GU6 D   3      10.209  43.584  13.0930  0.00  0.00     0.000 C
ATOM     41  C5  GU6 D   3      10.237  42.427  14.1460  0.00  0.00     0.000 C
ATOM     42  O5  GU6 D   3       9.064  42.294  14.9570  0.00  0.00     0.000 O
BRANCH 38 43
ATOM     43   O  GU6 D   3       7.387  45.453  14.2860  0.00  0.00     0.000 O
ATOM     44   S  GU6 D   3       6.572  45.955  15.4710  0.00  0.00     0.000 S
ATOM     45   O  GU6 D   3       5.589  44.920  15.8340  0.00  0.00     0.000 OA
ATOM     46   O  GU6 D   3       7.484  46.185  16.6060  0.00  0.00     0.000 O
ATOM     47   O  GU6 D   3       5.916  47.203  15.0950  0.00  0.00     0.000 OA
ENDBRANCH 38 43
BRANCH 39 48
ATOM     48   O  GU6 D   3       9.949  46.070  13.2260  0.00  0.00     0.000 O
ATOM     49   S  GU6 D   3      10.749  47.179  13.9090  0.00  0.00     0.000 S
ATOM     50   O  GU6 D   3      12.064  46.674  14.3200  0.00  0.00     0.000 OA
ATOM     51   O  GU6 D   3      10.876  48.194  12.8540  0.00  0.00     0.000 OA
ATOM     52   O  GU6 D   3       9.997  47.655  15.0910  0.00  0.00     0.000 O
ENDBRANCH 39 48
BRANCH 41 53
ATOM     53   C  GU6 D   3      11.321  41.420  14.4170  0.00  0.00     0.000 C
ATOM     54   O  GU6 D   3      10.507  40.277  14.4810  0.00  0.00     0.000 O
ATOM     55   S  GU6 D   3      11.105  38.916  14.8620  0.00  0.00     0.000 S
ATOM     56   O  GU6 D   3      11.548  39.023  16.2710  0.00  0.00     0.000 O
ATOM     57   O  GU6 D   3      10.062  37.890  14.7210  0.00  0.00     0.000 OA
ATOM     58   O  GU6 D   3      12.253  38.674  13.9600  0.00  0.00     0.000 OA
ENDBRANCH 41 53
BRANCH 37 59
ATOM     59  O4  Z9K D   4       7.344  42.509  13.4370  0.00  0.00     0.000 O
BRANCH 59 63
ATOM     60  C1  Z9K D   4       4.836  41.292  10.6660  0.00  0.00     0.000 C
ATOM     61  C2  Z9K D   4       4.356  42.753  10.8860  0.00  0.00     0.000 C
ATOM     62  C3  Z9K D   4       5.483  43.296  11.8680  0.00  0.00     0.000 C
ATOM     63  C4  Z9K D   4       5.933  42.406  13.0880  0.00  0.00     0.000 C
ATOM     64  C5  Z9K D   4       5.744  40.890  12.9230  0.00  0.00     0.000 C
ATOM     65  O5  Z9K D   4       5.938  40.695  11.4980  0.00  0.00     0.000 O
ATOM     66   O  Z9K D   4       5.169  44.578  12.4410  0.00  0.00     0.000 O
ATOM     67   C  Z9K D   4       5.531  45.686  11.6330  0.00  0.00     0.000 C
BRANCH 61 68
ATOM     68   O  Z9K D   4       4.531  43.431   9.6720  0.00  0.00     0.000 O
ATOM     69   O  Z9K D   4       2.584  44.415  11.0100  0.00  0.00     0.000 OA
ATOM     70   S  Z9K D   4       2.934  43.571   9.9070  0.00  0.00     0.000 S
ATOM     71   O  Z9K D   4       2.303  42.333   9.5680  0.00  0.00     0.000 OA
ATOM     72   O  Z9K D   4       3.140  44.340   8.7220  0.00  0.00     0.000 OA
ENDBRANCH 61 68
BRANCH 64 73
ATOM     73   C  Z9K D   4       6.645  40.115  13.9080  0.00  0.00     0.000 C
ATOM     74   O  Z9K D   4       6.413  40.121  15.1520  0.00  0.00     0.000 O
ATOM     75   O  Z9K D   4       7.633  39.447  13.5150  0.00  0.00     0.000 OA
ENDBRANCH 64 73
BRANCH 60 76
ATOM     76  O4  Z9L D   5       4.051  40.087  10.6360  0.00  0.00     0.000 O
BRANCH 76 80
ATOM     77  C1  Z9L D   5       3.163  36.785   8.5680  0.00  0.00     0.000 C
ATOM     78  C2  Z9L D   5       3.985  36.321   9.8650  0.00  0.00     0.000 C
ATOM     79  C3  Z9L D   5       3.958  37.619  10.9480  0.00  0.00     0.000 C
ATOM     80  C4  Z9L D   5       4.221  38.887   9.9280  0.00  0.00     0.000 C
ATOM     81  C5  Z9L D   5       3.561  39.246   8.5010  0.00  0.00     0.000 C
ATOM     82  O5  Z9L D   5       3.459  38.009   7.7810  0.00  0.00     0.000 O
ATOM     83   C  Z9L D   5       0.885  37.150   7.8130  0.00  0.00     0.000 C
ATOM     84   C  Z9L D   5       0.885  37.150   7.8130  0.00  0.00     0.000 C
BRANCH 78 85
ATOM     85   O  Z9L D   5       3.320  35.238  10.4330  0.00  0.00     0.000 O
ATOM     86   O  Z9L D   5       3.921  33.410  10.3660  0.00  0.00     0.000 OA
ATOM     87   S  Z9L D   5       4.662  34.539   9.8930  0.00  0.00     0.000 S
ATOM     88   O  Z9L D   5       5.782  34.656  10.7950  0.00  0.00     0.000 OA
ATOM     89   O  Z9L D   5       4.761  34.360   8.4860  0.00  0.00     0.000 OA
ENDBRANCH 78 85
BRANCH 79 90
ATOM     90   O  Z9L D   5       5.096  37.635  11.7500  0.00  0.00     0.000 O
ATOM     91   S  Z9L D   5       3.984  37.428  12.8700  0.00  0.00     0.000 S
ATOM     92   O  Z9L D   5       3.048  36.335  12.8330  0.00  0.00     0.000 OA
ATOM     93   O  Z9L D   5       3.606  38.710  13.4110  0.00  0.00     0.000 O
ATOM     94   O  Z9L D   5       5.126  36.982  13.6000  0.00  0.00     0.000 OA
ENDBRANCH 79 90
BRANCH 81 95
ATOM     95   C  Z9L D   5       4.154  40.593   7.6970  0.00  0.00     0.000 C
ATOM     96   S  Z9L D   5       4.253  41.525   5.9400  0.00  0.00     0.000 S
ATOM     97   O  Z9L D   5       4.262  40.025   6.4190  0.00  0.00     0.000 O
ATOM     98   O  Z9L D   5       5.531  42.084   6.2990  0.00  0.00     0.000 OA
ATOM     99   O  Z9L D   5       3.042  42.240   6.1660  0.00  0.00     0.000 OA
ATOM    100   O  Z9L D   5       4.380  40.886   4.6540  0.00  0.00     0.000 O
ENDBRANCH 81 95
ENDBRANCH 76 80
ENDBRANCH 60 76
ENDBRANCH 59 63
ENDBRANCH 37 59
ENDBRANCH 36 40
ENDBRANCH 23 36
ENDBRANCH 22 26
ENDBRANCH 1 22
TORSDOF 19
ENDMDL
MODEL 25
REMARK VINA RESULT:      -3.9     24.777     30.620
ROOT
ATOM      1  C1  Z9H D   1      16.072  46.319   7.7390  0.00  0.00     0.000 C
ATOM      2  C2  Z9H D   1      15.988  44.790   7.5180  0.00  0.00     0.000 C
ATOM      3  C3  Z9H D   1      14.509  44.581   7.9640  0.00  0.00     0.000 C
ATOM      4  C4  Z9H D   1      14.125  45.219   9.3630  0.00  0.00     0.000 C
ATOM      5  C5  Z9H D   1      14.501  46.699   9.7710  0.00  0.00     0.000 C
ATOM      6  O5  Z9H D   1      15.732  46.897   9.0300  0.00  0.00     0.000 O
ATOM      7   O  Z9H D   1      14.137  43.202   7.9280  0.00  0.00     0.000 O
ATOM      8   C  Z9H D   1      13.416  42.789   6.7550  0.00  0.00     0.000 C
ATOM      9   O  Z9H D   1      12.702  45.102   9.4660  0.00  0.00     0.000 O
ATOM     10   C  Z9H D   1      12.229  44.003  10.2520  0.00  0.00     0.000 C
ENDROOT
BRANCH 2 11
ATOM     11   O  Z9H D   1      15.965  44.697   6.1180  0.00  0.00     0.000 O
ATOM     12   O  Z9H D   1      17.353  43.951   5.0810  0.00  0.00     0.000 OA
ATOM     13   S  Z9H D   1      17.343  44.008   6.5040  0.00  0.00     0.000 S
ATOM     14   O  Z9H D   1      17.056  42.750   7.1330  0.00  0.00     0.000 OA
ATOM     15   O  Z9H D   1      18.308  44.973   6.9770  0.00  0.00     0.000 O
ENDBRANCH 2 11
BRANCH 5 16
ATOM     16   C  Z9H D   1      14.409  47.028  11.4090  0.00  0.00     0.000 C
ATOM     17   S  Z9H D   1      13.930  48.433  12.7650  0.00  0.00     0.000 S
ATOM     18   O  Z9H D   1      13.315  47.912  11.3660  0.00  0.00     0.000 O
ATOM     19   O  Z9H D   1      15.192  49.106  12.6540  0.00  0.00     0.000 O
ATOM     20   O  Z9H D   1      13.625  47.516  13.8070  0.00  0.00     0.000 OA
ATOM     21   O  Z9H D   1      12.826  49.339  12.6420  0.00  0.00     0.000 OA
ENDBRANCH 5 16
BRANCH 1 22
ATOM     22  O4  GU1 D   2      15.211  47.120   6.8510  0.00  0.00     0.000 O
BRANCH 22 26
ATOM     23  C1  GU1 D   2      14.823  50.825   5.0910  0.00  0.00     0.000 C
ATOM     24  C2  GU1 D   2      16.248  50.433   5.4510  0.00  0.00     0.000 C
ATOM     25  C3  GU1 D   2      16.307  48.957   5.7160  0.00  0.00     0.000 C
ATOM     26  C4  GU1 D   2      15.268  48.548   6.7500  0.00  0.00     0.000 C
ATOM     27  C5  GU1 D   2      13.889  49.079   6.3470  0.00  0.00     0.000 C
ATOM     28  O5  GU1 D   2      13.936  50.490   6.1520  0.00  0.00     0.000 O
ATOM     29   O  GU1 D   2      17.163  50.734   4.4040  0.00  0.00     0.000 O
ATOM     30   C  GU1 D   2      17.842  51.971   4.5710  0.00  0.00     0.000 C
ATOM     31   C  GU1 D   2      18.491  48.045   5.2760  0.00  0.00     0.000 C
ATOM     32   O  GU1 D   2      17.607  48.640   6.2230  0.00  0.00     0.000 O
BRANCH 27 33
ATOM     33   C  GU1 D   2      12.860  48.792   7.4140  0.00  0.00     0.000 C
ATOM     34   O  GU1 D   2      12.102  47.858   7.2490  0.00  0.00     0.000 OA
ATOM     35   O  GU1 D   2      12.798  49.484   8.4180  0.00  0.00     0.000 O
ENDBRANCH 27 33
BRANCH 23 36
ATOM     36  O4  GU6 D   3      14.451  52.216   5.0320  0.00  0.00     0.000 O
BRANCH 36 40
ATOM     37  C1  GU6 D   3      13.142  55.938   6.0920  0.00  0.00     0.000 C
ATOM     38  C2  GU6 D   3      13.331  55.753   4.5910  0.00  0.00     0.000 C
ATOM     39  C3  GU6 D   3      13.546  54.294   4.2860  0.00  0.00     0.000 C
ATOM     40  C4  GU6 D   3      13.756  53.385   5.4180  0.00  0.00     0.000 C
ATOM     41  C5  GU6 D   3      14.624  54.098   6.5070  0.00  0.00     0.000 C
ATOM     42  O5  GU6 D   3      14.307  55.473   6.7550  0.00  0.00     0.000 O
BRANCH 38 43
ATOM     43   O  GU6 D   3      12.203  56.234   3.8850  0.00  0.00     0.000 O
ATOM     44   S  GU6 D   3      12.339  57.665   3.3820  0.00  0.00     0.000 S
ATOM     45   O  GU6 D   3      12.027  58.583   4.4900  0.00  0.00     0.000 OA
ATOM     46   O  GU6 D   3      13.731  57.880   2.9450  0.00  0.00     0.000 O
ATOM     47   O  GU6 D   3      11.427  57.857   2.2590  0.00  0.00     0.000 OA
ENDBRANCH 38 43
BRANCH 39 48
ATOM     48   O  GU6 D   3      13.321  53.783   2.9860  0.00  0.00     0.000 O
ATOM     49   S  GU6 D   3      14.245  53.756   1.7690  0.00  0.00     0.000 S
ATOM     50   O  GU6 D   3      15.512  53.099   2.1110  0.00  0.00     0.000 OA
ATOM     51   O  GU6 D   3      13.485  52.968   0.7900  0.00  0.00     0.000 OA
ATOM     52   O  GU6 D   3      14.499  55.146   1.3290  0.00  0.00     0.000 O
ENDBRANCH 39 48
BRANCH 41 53
ATOM     53   C  GU6 D   3      15.739  53.537   7.3470  0.00  0.00     0.000 C
ATOM     54   O  GU6 D   3      14.948  52.872   8.2960  0.00  0.00     0.000 O
ATOM     55   S  GU6 D   3      15.596  52.188   9.5080  0.00  0.00     0.000 S
ATOM     56   O  GU6 D   3      16.187  53.261  10.3390  0.00  0.00     0.000 O
ATOM     57   O  GU6 D   3      14.552  51.468  10.2520  0.00  0.00     0.000 OA
ATOM     58   O  GU6 D   3      16.642  51.278   8.9900  0.00  0.00     0.000 OA
ENDBRANCH 41 53
BRANCH 37 59
ATOM     59  O4  Z9K D   4      12.003  55.474   6.8470  0.00  0.00     0.000 O
BRANCH 59 63
ATOM     60  C1  Z9K D   4       9.221  56.460   9.4430  0.00  0.00     0.000 C
ATOM     61  C2  Z9K D   4      10.416  57.318   9.9420  0.00  0.00     0.000 C
ATOM     62  C3  Z9K D   4      11.477  57.059   8.7860  0.00  0.00     0.000 C
ATOM     63  C4  Z9K D   4      11.706  55.587   8.2690  0.00  0.00     0.000 C
ATOM     64  C5  Z9K D   4      10.521  54.623   8.4350  0.00  0.00     0.000 C
ATOM     65  O5  Z9K D   4       9.371  55.498   8.2960  0.00  0.00     0.000 O
ATOM     66   O  Z9K D   4      12.793  57.548   9.1020  0.00  0.00     0.000 O
ATOM     67   C  Z9K D   4      12.999  58.917   8.7960  0.00  0.00     0.000 C
BRANCH 61 68
ATOM     68   O  Z9K D   4      10.033  58.661   9.8300  0.00  0.00     0.000 O
ATOM     69   O  Z9K D   4      11.574  58.302  11.8420  0.00  0.00     0.000 OA
ATOM     70   S  Z9K D   4      10.216  58.497  11.4310  0.00  0.00     0.000 S
ATOM     71   O  Z9K D   4       9.076  57.816  11.9630  0.00  0.00     0.000 OA
ATOM     72   O  Z9K D   4       9.919  59.887  11.2970  0.00  0.00     0.000 OA
ENDBRANCH 61 68
BRANCH 64 73
ATOM     73   C  Z9K D   4      10.657  53.418   7.4790  0.00  0.00     0.000 C
ATOM     74   O  Z9K D   4      11.420  52.447   7.7530  0.00  0.00     0.000 O
ATOM     75   O  Z9K D   4      10.014  53.352   6.4030  0.00  0.00     0.000 OA
ENDBRANCH 64 73
BRANCH 60 76
ATOM     76  O4  Z9L D   5       8.361  55.595  10.2040  0.00  0.00     0.000 O
BRANCH 76 80
ATOM     77  C1  Z9L D   5       4.614  54.261  10.5920  0.00  0.00     0.000 C
ATOM     78  C2  Z9L D   5       5.520  53.003  10.1820  0.00  0.00     0.000 C
ATOM     79  C3  Z9L D   5       7.127  53.449  10.4660  0.00  0.00     0.000 C
ATOM     80  C4  Z9L D   5       7.134  54.991   9.8850  0.00  0.00     0.000 C
ATOM     81  C5  Z9L D   5       6.098  56.206  10.1060  0.00  0.00     0.000 C
ATOM     82  O5  Z9L D   5       4.783  55.632  10.0450  0.00  0.00     0.000 O
ATOM     83   C  Z9L D   5       3.770  55.416  12.5540  0.00  0.00     0.000 C
ATOM     84   C  Z9L D   5       3.770  55.416  12.5540  0.00  0.00     0.000 C
BRANCH 78 85
ATOM     85   O  Z9L D   5       5.187  51.941  11.0160  0.00  0.00     0.000 O
ATOM     86   O  Z9L D   5       4.266  50.343  10.4600  0.00  0.00     0.000 OA
ATOM     87   S  Z9L D   5       4.721  51.379   9.5850  0.00  0.00     0.000 S
ATOM     88   O  Z9L D   5       5.787  50.782   8.8190  0.00  0.00     0.000 OA
ATOM     89   O  Z9L D   5       3.539  51.950   9.0350  0.00  0.00     0.000 OA
ENDBRANCH 78 85
BRANCH 79 90
ATOM     90   O  Z9L D   5       7.996  52.794   9.5970  0.00  0.00     0.000 O
ATOM     91   S  Z9L D   5       8.618  52.339  10.9910  0.00  0.00     0.000 S
ATOM     92   O  Z9L D   5       7.841  51.668  12.0000  0.00  0.00     0.000 OA
ATOM     93   O  Z9L D   5       9.685  53.239  11.3540  0.00  0.00     0.000 O
ATOM     94   O  Z9L D   5       9.182  51.332  10.1520  0.00  0.00     0.000 OA
ENDBRANCH 79 90
BRANCH 81 95
ATOM     95   C  Z9L D   5       6.388  57.628   9.2660  0.00  0.00     0.000 C
ATOM     96   S  Z9L D   5       5.936  58.672   7.6310  0.00  0.00     0.000 S
ATOM     97   O  Z9L D   5       6.129  57.147   7.9740  0.00  0.00     0.000 O
ATOM     98   O  Z9L D   5       7.248  59.268   7.6400  0.00  0.00     0.000 OA
ATOM     99   O  Z9L D   5       4.827  59.311   8.2540  0.00  0.00     0.000 OA
ATOM    100   O  Z9L D   5       5.695  58.121   6.3200  0.00  0.00     0.000 O
ENDBRANCH 81 95
ENDBRANCH 76 80
ENDBRANCH 60 76
ENDBRANCH 59 63
ENDBRANCH 37 59
ENDBRANCH 36 40
ENDBRANCH 23 36
ENDBRANCH 22 26
ENDBRANCH 1 22
TORSDOF 19
ENDMDL
MODEL 26
REMARK VINA RESULT:      -3.6     13.119     20.933
ROOT
ATOM      1  C1  Z9H D   1      26.834  35.638   6.6050  0.00  0.00     0.000 C
ATOM      2  C2  Z9H D   1      27.941  34.584   6.3650  0.00  0.00     0.000 C
ATOM      3  C3  Z9H D   1      28.898  34.999   7.5260  0.00  0.00     0.000 C
ATOM      4  C4  Z9H D   1      29.251  36.542   7.5950  0.00  0.00     0.000 C
ATOM      5  C5  Z9H D   1      28.163  37.683   7.4950  0.00  0.00     0.000 C
ATOM      6  O5  Z9H D   1      27.164  37.054   6.6540  0.00  0.00     0.000 O
ATOM      7   O  Z9H D   1      30.092  34.215   7.5290  0.00  0.00     0.000 O
ATOM      8   C  Z9H D   1      30.104  33.115   8.4550  0.00  0.00     0.000 C
ATOM      9   O  Z9H D   1      29.944  36.726   8.8350  0.00  0.00     0.000 O
ATOM     10   C  Z9H D   1      31.371  36.779   8.7420  0.00  0.00     0.000 C
ENDROOT
BRANCH 2 11
ATOM     11   O  Z9H D   1      27.322  33.404   6.8060  0.00  0.00     0.000 O
ATOM     12   O  Z9H D   1      26.857  31.966   5.6780  0.00  0.00     0.000 OA
ATOM     13   S  Z9H D   1      27.529  33.148   5.2520  0.00  0.00     0.000 S
ATOM     14   O  Z9H D   1      28.931  32.962   5.0090  0.00  0.00     0.000 OA
ATOM     15   O  Z9H D   1      26.647  33.968   4.4540  0.00  0.00     0.000 O
ENDBRANCH 2 11
BRANCH 5 16
ATOM     16   C  Z9H D   1      28.762  39.206   7.1440  0.00  0.00     0.000 C
ATOM     17   S  Z9H D   1      28.450  41.176   7.3890  0.00  0.00     0.000 S
ATOM     18   O  Z9H D   1      28.325  39.858   8.3120  0.00  0.00     0.000 O
ATOM     19   O  Z9H D   1      27.498  41.255   6.3180  0.00  0.00     0.000 O
ATOM     20   O  Z9H D   1      29.815  41.548   7.2470  0.00  0.00     0.000 OA
ATOM     21   O  Z9H D   1      27.955  41.779   8.5920  0.00  0.00     0.000 OA
ENDBRANCH 5 16
BRANCH 1 22
ATOM     22  O4  GU1 D   2      26.102  35.490   7.8750  0.00  0.00     0.000 O
BRANCH 22 26
ATOM     23  C1  GU1 D   2      22.492  36.316   9.6790  0.00  0.00     0.000 C
ATOM     24  C2  GU1 D   2      22.461  36.311   8.1580  0.00  0.00     0.000 C
ATOM     25  C3  GU1 D   2      23.697  35.636   7.6380  0.00  0.00     0.000 C
ATOM     26  C4  GU1 D   2      24.950  36.261   8.2330  0.00  0.00     0.000 C
ATOM     27  C5  GU1 D   2      24.835  36.313   9.7600  0.00  0.00     0.000 C
ATOM     28  O5  GU1 D   2      23.649  37.000  10.1480  0.00  0.00     0.000 O
ATOM     29   O  GU1 D   2      21.328  35.615   7.6520  0.00  0.00     0.000 O
ATOM     30   C  GU1 D   2      20.238  36.461   7.3140  0.00  0.00     0.000 C
ATOM     31   C  GU1 D   2      23.343  34.647   5.4720  0.00  0.00     0.000 C
ATOM     32   O  GU1 D   2      23.735  35.798   6.2160  0.00  0.00     0.000 O
BRANCH 27 33
ATOM     33   C  GU1 D   2      26.011  37.038  10.3710  0.00  0.00     0.000 C
ATOM     34   O  GU1 D   2      26.068  38.245  10.2570  0.00  0.00     0.000 OA
ATOM     35   O  GU1 D   2      26.878  36.420  10.9700  0.00  0.00     0.000 O
ENDBRANCH 27 33
BRANCH 23 36
ATOM     36  O4  GU6 D   3      21.548  37.117  10.4170  0.00  0.00     0.000 O
BRANCH 36 40
ATOM     37  C1  GU6 D   3      18.197  39.098  11.6580  0.00  0.00     0.000 C
ATOM     38  C2  GU6 D   3      19.498  39.701  12.1730  0.00  0.00     0.000 C
ATOM     39  C3  GU6 D   3      20.664  39.078  11.4500  0.00  0.00     0.000 C
ATOM     40  C4  GU6 D   3      20.394  37.913  10.6000  0.00  0.00     0.000 C
ATOM     41  C5  GU6 D   3      19.313  37.009  11.2790  0.00  0.00     0.000 C
ATOM     42  O5  GU6 D   3      18.221  37.700  11.8970  0.00  0.00     0.000 O
BRANCH 38 43
ATOM     43   O  GU6 D   3      19.507  41.103  11.9830  0.00  0.00     0.000 O
ATOM     44   S  GU6 D   3      18.961  41.900  13.1610  0.00  0.00     0.000 S
ATOM     45   O  GU6 D   3      17.491  41.905  13.0820  0.00  0.00     0.000 OA
ATOM     46   O  GU6 D   3      19.383  41.241  14.4110  0.00  0.00     0.000 O
ATOM     47   O  GU6 D   3      19.502  43.255  13.1020  0.00  0.00     0.000 OA
ENDBRANCH 38 43
BRANCH 39 48
ATOM     48   O  GU6 D   3      21.921  39.725  11.4050  0.00  0.00     0.000 O
ATOM     49   S  GU6 D   3      23.009  39.830  12.4730  0.00  0.00     0.000 S
ATOM     50   O  GU6 D   3      23.402  38.491  12.9270  0.00  0.00     0.000 OA
ATOM     51   O  GU6 D   3      24.110  40.494  11.7630  0.00  0.00     0.000 OA
ATOM     52   O  GU6 D   3      22.489  40.618  13.6120  0.00  0.00     0.000 O
ENDBRANCH 39 48
BRANCH 41 53
ATOM     53   C  GU6 D   3      19.249  35.508  11.3620  0.00  0.00     0.000 C
ATOM     54   O  GU6 D   3      18.676  35.271  10.1020  0.00  0.00     0.000 O
ATOM     55   S  GU6 D   3      18.270  33.851   9.6860  0.00  0.00     0.000 S
ATOM     56   O  GU6 D   3      17.161  33.444  10.5790  0.00  0.00     0.000 O
ATOM     57   O  GU6 D   3      17.826  33.883   8.2850  0.00  0.00     0.000 OA
ATOM     58   O  GU6 D   3      19.454  32.983   9.8770  0.00  0.00     0.000 OA
ENDBRANCH 41 53
BRANCH 37 59
ATOM     59  O4  Z9K D   4      17.657  39.299  10.3340  0.00  0.00     0.000 O
BRANCH 59 63
ATOM     60  C1  Z9K D   4      15.167  42.340  10.3030  0.00  0.00     0.000 C
ATOM     61  C2  Z9K D   4      14.271  41.223  10.9060  0.00  0.00     0.000 C
ATOM     62  C3  Z9K D   4      15.331  40.051  11.0870  0.00  0.00     0.000 C
ATOM     63  C4  Z9K D   4      16.331  39.732   9.9120  0.00  0.00     0.000 C
ATOM     64  C5  Z9K D   4      16.652  40.897   8.9640  0.00  0.00     0.000 C
ATOM     65  O5  Z9K D   4      16.569  42.054   9.8360  0.00  0.00     0.000 O
ATOM     66   O  Z9K D   4      14.729  38.785  11.4140  0.00  0.00     0.000 O
ATOM     67   C  Z9K D   4      14.484  38.593  12.7980  0.00  0.00     0.000 C
BRANCH 61 68
ATOM     68   O  Z9K D   4      13.913  41.633  12.1970  0.00  0.00     0.000 O
ATOM     69   O  Z9K D   4      12.068  40.217  11.1320  0.00  0.00     0.000 OA
ATOM     70   S  Z9K D   4      12.473  41.550  11.4610  0.00  0.00     0.000 S
ATOM     71   O  Z9K D   4      12.306  42.704  10.6310  0.00  0.00     0.000 OA
ATOM     72   O  Z9K D   4      12.114  41.875  12.8040  0.00  0.00     0.000 OA
ENDBRANCH 61 68
BRANCH 64 73
ATOM     73   C  Z9K D   4      17.968  40.637   8.2000  0.00  0.00     0.000 C
ATOM     74   O  Z9K D   4      17.975  40.011   7.1010  0.00  0.00     0.000 O
ATOM     75   O  Z9K D   4      19.075  41.040   8.6340  0.00  0.00     0.000 OA
ENDBRANCH 64 73
BRANCH 60 76
ATOM     76  O4  Z9L D   5      14.869  43.241   9.2240  0.00  0.00     0.000 O
BRANCH 76 80
ATOM     77  C1  Z9L D   5      14.951  47.067   8.0720  0.00  0.00     0.000 C
ATOM     78  C2  Z9L D   5      15.967  46.269   7.1230  0.00  0.00     0.000 C
ATOM     79  C3  Z9L D   5      15.599  44.627   7.2890  0.00  0.00     0.000 C
ATOM     80  C4  Z9L D   5      15.367  44.518   8.9160  0.00  0.00     0.000 C
ATOM     81  C5  Z9L D   5      14.528  45.454   9.9260  0.00  0.00     0.000 C
ATOM     82  O5  Z9L D   5      14.780  46.809   9.5250  0.00  0.00     0.000 O
ATOM     83   C  Z9L D   5      12.629  47.770   8.1780  0.00  0.00     0.000 C
ATOM     84   C  Z9L D   5      12.629  47.770   8.1780  0.00  0.00     0.000 C
BRANCH 78 85
ATOM     85   O  Z9L D   5      15.728  46.660   5.8080  0.00  0.00     0.000 O
ATOM     86   O  Z9L D   5      16.930  47.709   4.7290  0.00  0.00     0.000 OA
ATOM     87   S  Z9L D   5      17.225  47.199   6.0340  0.00  0.00     0.000 S
ATOM     88   O  Z9L D   5      18.241  46.199   5.8240  0.00  0.00     0.000 OA
ATOM     89   O  Z9L D   5      17.366  48.348   6.8610  0.00  0.00     0.000 OA
ENDBRANCH 78 85
BRANCH 79 90
ATOM     90   O  Z9L D   5      16.724  43.832   7.0900  0.00  0.00     0.000 O
ATOM     91   S  Z9L D   5      15.787  43.262   5.9350  0.00  0.00     0.000 S
ATOM     92   O  Z9L D   5      15.216  44.106   4.9190  0.00  0.00     0.000 OA
ATOM     93   O  Z9L D   5      15.078  42.105   6.4230  0.00  0.00     0.000 O
ATOM     94   O  Z9L D   5      17.049  42.808   5.4470  0.00  0.00     0.000 OA
ENDBRANCH 79 90
BRANCH 81 95
ATOM     95   C  Z9L D   5      14.597  45.078  11.5590  0.00  0.00     0.000 C
ATOM     96   S  Z9L D   5      15.278  45.667  13.3360  0.00  0.00     0.000 S
ATOM     97   O  Z9L D   5      15.811  45.716  11.8550  0.00  0.00     0.000 O
ATOM     98   O  Z9L D   5      15.369  44.295  13.7640  0.00  0.00     0.000 OA
ATOM     99   O  Z9L D   5      14.121  46.452  13.6040  0.00  0.00     0.000 OA
ATOM    100   O  Z9L D   5      16.548  46.306  13.5810  0.00  0.00     0.000 O
ENDBRANCH 81 95
ENDBRANCH 76 80
ENDBRANCH 60 76
ENDBRANCH 59 63
ENDBRANCH 37 59
ENDBRANCH 36 40
ENDBRANCH 23 36
ENDBRANCH 22 26
ENDBRANCH 1 22
TORSDOF 19
ENDMDL
MODEL 27
REMARK VINA RESULT:      -3.5     14.254     21.517
ROOT
ATOM      1  C1  Z9H D   1      27.130  37.654  15.3280  0.00  0.00     0.000 C
ATOM      2  C2  Z9H D   1      27.915  38.334  16.4750  0.00  0.00     0.000 C
ATOM      3  C3  Z9H D   1      29.173  38.763  15.6600  0.00  0.00     0.000 C
ATOM      4  C4  Z9H D   1      29.842  37.620  14.7910  0.00  0.00     0.000 C
ATOM      5  C5  Z9H D   1      29.016  36.657  13.8480  0.00  0.00     0.000 C
ATOM      6  O5  Z9H D   1      27.745  36.595  14.5430  0.00  0.00     0.000 O
ATOM      7   O  Z9H D   1      30.151  39.390  16.4930  0.00  0.00     0.000 O
ATOM      8   C  Z9H D   1      30.148  40.827  16.4710  0.00  0.00     0.000 C
ATOM      9   O  Z9H D   1      30.820  38.273  13.9750  0.00  0.00     0.000 O
ATOM     10   C  Z9H D   1      32.169  38.195  14.4470  0.00  0.00     0.000 C
ENDROOT
BRANCH 2 11
ATOM     11   O  Z9H D   1      27.183  39.517  16.6680  0.00  0.00     0.000 O
ATOM     12   O  Z9H D   1      26.211  39.918  18.2340  0.00  0.00     0.000 OA
ATOM     13   S  Z9H D   1      26.996  38.745  18.0440  0.00  0.00     0.000 S
ATOM     14   O  Z9H D   1      28.247  38.764  18.7460  0.00  0.00     0.000 OA
ATOM     15   O  Z9H D   1      26.143  37.588  17.8940  0.00  0.00     0.000 O
ENDBRANCH 2 11
BRANCH 5 16
ATOM     16   C  Z9H D   1      29.819  35.266  13.3770  0.00  0.00     0.000 C
ATOM     17   S  Z9H D   1      29.576  33.427  12.6030  0.00  0.00     0.000 S
ATOM     18   O  Z9H D   1      28.956  34.892  12.3290  0.00  0.00     0.000 O
ATOM     19   O  Z9H D   1      29.208  32.843  13.8610  0.00  0.00     0.000 O
ATOM     20   O  Z9H D   1      30.884  33.337  12.0550  0.00  0.00     0.000 OA
ATOM     21   O  Z9H D   1      28.644  33.097  11.5650  0.00  0.00     0.000 OA
ENDBRANCH 5 16
BRANCH 1 22
ATOM     22  O4  GU1 D   2      26.691  38.563  14.2540  0.00  0.00     0.000 O
BRANCH 22 26
ATOM     23  C1  GU1 D   2      23.633  39.399  11.6240  0.00  0.00     0.000 C
ATOM     24  C2  GU1 D   2      23.193  38.770  12.9370  0.00  0.00     0.000 C
ATOM     25  C3  GU1 D   2      24.310  38.870  13.9350  0.00  0.00     0.000 C
ATOM     26  C4  GU1 D   2      25.599  38.292  13.3680  0.00  0.00     0.000 C
ATOM     27  C5  GU1 D   2      25.896  38.914  12.0010  0.00  0.00     0.000 C
ATOM     28  O5  GU1 D   2      24.788  38.737  11.1210  0.00  0.00     0.000 O
ATOM     29   O  GU1 D   2      22.051  39.421  13.4820  0.00  0.00     0.000 O
ATOM     30   C  GU1 D   2      20.822  38.777  13.1770  0.00  0.00     0.000 C
ATOM     31   C  GU1 D   2      23.499  38.906  16.2010  0.00  0.00     0.000 C
ATOM     32   O  GU1 D   2      23.946  38.120  15.0980  0.00  0.00     0.000 O
BRANCH 27 33
ATOM     33   C  GU1 D   2      27.103  38.273  11.3590  0.00  0.00     0.000 C
ATOM     34   O  GU1 D   2      27.003  37.136  10.9460  0.00  0.00     0.000 OA
ATOM     35   O  GU1 D   2      28.152  38.889  11.2560  0.00  0.00     0.000 O
ENDBRANCH 27 33
BRANCH 23 36
ATOM     36  O4  GU6 D   3      22.839  39.215  10.4350  0.00  0.00     0.000 O
BRANCH 36 40
ATOM     37  C1  GU6 D   3      20.206  39.837   7.3730  0.00  0.00     0.000 C
ATOM     38  C2  GU6 D   3      20.670  38.392   7.5060  0.00  0.00     0.000 C
ATOM     39  C3  GU6 D   3      21.408  38.216   8.8070  0.00  0.00     0.000 C
ATOM     40  C4  GU6 D   3      21.741  39.424   9.5700  0.00  0.00     0.000 C
ATOM     41  C5  GU6 D   3      22.142  40.571   8.5850  0.00  0.00     0.000 C
ATOM     42  O5  GU6 D   3      21.346  40.682   7.3990  0.00  0.00     0.000 O
BRANCH 38 43
ATOM     43   O  GU6 D   3      19.566  37.508   7.4540  0.00  0.00     0.000 O
ATOM     44   S  GU6 D   3      19.339  36.865   6.0920  0.00  0.00     0.000 S
ATOM     45   O  GU6 D   3      18.608  37.818   5.2400  0.00  0.00     0.000 OA
ATOM     46   O  GU6 D   3      20.650  36.572   5.4860  0.00  0.00     0.000 O
ATOM     47   O  GU6 D   3      18.586  35.628   6.2770  0.00  0.00     0.000 OA
ENDBRANCH 38 43
BRANCH 39 48
ATOM     48   O  GU6 D   3      21.568  36.935   9.3850  0.00  0.00     0.000 O
ATOM     49   S  GU6 D   3      22.576  35.832   9.0630  0.00  0.00     0.000 S
ATOM     50   O  GU6 D   3      23.944  36.354   9.1620  0.00  0.00     0.000 OA
ATOM     51   O  GU6 D   3      22.313  34.828  10.1030  0.00  0.00     0.000 OA
ATOM     52   O  GU6 D   3      22.321  35.335   7.6930  0.00  0.00     0.000 O
ENDBRANCH 39 48
BRANCH 41 53
ATOM     53   C  GU6 D   3      23.242  41.590   8.7140  0.00  0.00     0.000 C
ATOM     54   O  GU6 D   3      24.306  40.777   8.2910  0.00  0.00     0.000 O
ATOM     55   S  GU6 D   3      25.748  41.298   8.3340  0.00  0.00     0.000 S
ATOM     56   O  GU6 D   3      26.092  41.488   9.7620  0.00  0.00     0.000 O
ATOM     57   O  GU6 D   3      26.627  40.294   7.7160  0.00  0.00     0.000 OA
ATOM     58   O  GU6 D   3      25.772  42.586   7.6050  0.00  0.00     0.000 OA
ENDBRANCH 41 53
BRANCH 37 59
ATOM     59  O4  Z9K D   4      19.191  40.460   8.1880  0.00  0.00     0.000 O
BRANCH 59 63
ATOM     60  C1  Z9K D   4      15.946  41.354  10.2170  0.00  0.00     0.000 C
ATOM     61  C2  Z9K D   4      16.062  39.828  10.4900  0.00  0.00     0.000 C
ATOM     62  C3  Z9K D   4      17.470  39.509   9.8240  0.00  0.00     0.000 C
ATOM     63  C4  Z9K D   4      17.796  40.096   8.3980  0.00  0.00     0.000 C
ATOM     64  C5  Z9K D   4      17.058  41.389   8.0160  0.00  0.00     0.000 C
ATOM     65  O5  Z9K D   4      16.901  42.060   9.2940  0.00  0.00     0.000 O
ATOM     66   O  Z9K D   4      17.740  38.100   9.7140  0.00  0.00     0.000 O
ATOM     67   C  Z9K D   4      18.312  37.520  10.8750  0.00  0.00     0.000 C
BRANCH 61 68
ATOM     68   O  Z9K D   4      16.235  39.670  11.8720  0.00  0.00     0.000 O
ATOM     69   O  Z9K D   4      14.939  37.704  10.8700  0.00  0.00     0.000 OA
ATOM     70   S  Z9K D   4      14.823  38.917  11.6230  0.00  0.00     0.000 S
ATOM     71   O  Z9K D   4      13.791  39.897  11.4750  0.00  0.00     0.000 OA
ATOM     72   O  Z9K D   4      15.057  38.679  13.0100  0.00  0.00     0.000 OA
ENDBRANCH 61 68
BRANCH 64 73
ATOM     73   C  Z9K D   4      17.794  42.125   6.8770  0.00  0.00     0.000 C
ATOM     74   O  Z9K D   4      17.716  41.724   5.6800  0.00  0.00     0.000 O
ATOM     75   O  Z9K D   4      18.490  43.148   7.0910  0.00  0.00     0.000 OA
ENDBRANCH 64 73
BRANCH 60 76
ATOM     76  O4  Z9L D   5      14.796  42.100   9.7830  0.00  0.00     0.000 O
BRANCH 76 80
ATOM     77  C1  Z9L D   5      12.650  45.412  10.4110  0.00  0.00     0.000 C
ATOM     78  C2  Z9L D   5      13.279  45.532   8.9400  0.00  0.00     0.000 C
ATOM     79  C3  Z9L D   5      13.784  43.978   8.5010  0.00  0.00     0.000 C
ATOM     80  C4  Z9L D   5      14.473  43.461   9.9050  0.00  0.00     0.000 C
ATOM     81  C5  Z9L D   5      13.950  43.543  11.4280  0.00  0.00     0.000 C
ATOM     82  O5  Z9L D   5      13.361  44.843  11.5840  0.00  0.00     0.000 O
ATOM     83   C  Z9L D   5      10.656  44.624  11.5490  0.00  0.00     0.000 C
ATOM     84   C  Z9L D   5      10.656  44.624  11.5490  0.00  0.00     0.000 C
BRANCH 78 85
ATOM     85   O  Z9L D   5      12.273  45.947   8.0730  0.00  0.00     0.000 O
ATOM     86   O  Z9L D   5      12.164  47.688   7.2560  0.00  0.00     0.000 OA
ATOM     87   S  Z9L D   5      13.259  47.215   8.0460  0.00  0.00     0.000 S
ATOM     88   O  Z9L D   5      14.357  47.078   7.1210  0.00  0.00     0.000 OA
ATOM     89   O  Z9L D   5      13.265  48.037   9.2070  0.00  0.00     0.000 OA
ENDBRANCH 78 85
BRANCH 79 90
ATOM     90   O  Z9L D   5      14.870  44.026   7.6310  0.00  0.00     0.000 O
ATOM     91   S  Z9L D   5      13.833  43.232   6.7200  0.00  0.00     0.000 S
ATOM     92   O  Z9L D   5      12.530  43.755   6.4000  0.00  0.00     0.000 OA
ATOM     93   O  Z9L D   5      14.044  41.815   6.8790  0.00  0.00     0.000 O
ATOM     94   O  Z9L D   5      14.729  43.680   5.7030  0.00  0.00     0.000 OA
ENDBRANCH 79 90
BRANCH 81 95
ATOM     95   C  Z9L D   5      14.982  42.984  12.6270  0.00  0.00     0.000 C
ATOM     96   S  Z9L D   5      16.264  43.526  14.0510  0.00  0.00     0.000 S
ATOM     97   O  Z9L D   5      15.891  44.052  12.6140  0.00  0.00     0.000 O
ATOM     98   O  Z9L D   5      16.998  42.301  13.8670  0.00  0.00     0.000 OA
ATOM     99   O  Z9L D   5      15.241  43.637  15.0360  0.00  0.00     0.000 OA
ATOM    100   O  Z9L D   5      17.191  44.628  13.9740  0.00  0.00     0.000 O
ENDBRANCH 81 95
ENDBRANCH 76 80
ENDBRANCH 60 76
ENDBRANCH 59 63
ENDBRANCH 37 59
ENDBRANCH 36 40
ENDBRANCH 23 36
ENDBRANCH 22 26
ENDBRANCH 1 22
TORSDOF 19
ENDMDL
MODEL 28
REMARK VINA RESULT:      -3.3     15.038     22.889
ROOT
ATOM      1  C1  Z9H D   1      27.707  42.027  10.7170  0.00  0.00     0.000 C
ATOM      2  C2  Z9H D   1      29.151  41.800  10.2080  0.00  0.00     0.000 C
ATOM      3  C3  Z9H D   1      29.304  40.308  10.6320  0.00  0.00     0.000 C
ATOM      4  C4  Z9H D   1      28.915  39.985  12.1340  0.00  0.00     0.000 C
ATOM      5  C5  Z9H D   1      27.583  40.498  12.8120  0.00  0.00     0.000 C
ATOM      6  O5  Z9H D   1      27.360  41.742  12.1010  0.00  0.00     0.000 O
ATOM      7   O  Z9H D   1      30.610  39.808  10.3390  0.00  0.00     0.000 O
ATOM      8   C  Z9H D   1      30.721  39.052   9.1210  0.00  0.00     0.000 C
ATOM      9   O  Z9H D   1      28.919  38.557  12.2380  0.00  0.00     0.000 O
ATOM     10   C  Z9H D   1      30.100  37.983  12.8070  0.00  0.00     0.000 C
ENDROOT
BRANCH 2 11
ATOM     11   O  Z9H D   1      28.969  41.769   8.8170  0.00  0.00     0.000 O
ATOM     12   O  Z9H D   1      29.667  43.055   7.6270  0.00  0.00     0.000 OA
ATOM     13   S  Z9H D   1      29.884  43.049   9.0350  0.00  0.00     0.000 S
ATOM     14   O  Z9H D   1      31.194  42.606   9.4180  0.00  0.00     0.000 OA
ATOM     15   O  Z9H D   1      29.154  44.126   9.6620  0.00  0.00     0.000 O
ENDBRANCH 2 11
BRANCH 5 16
ATOM     16   C  Z9H D   1      27.569  40.437  14.4840  0.00  0.00     0.000 C
ATOM     17   S  Z9H D   1      28.684  40.709  16.1340  0.00  0.00     0.000 S
ATOM     18   O  Z9H D   1      28.497  41.468  14.7220  0.00  0.00     0.000 O
ATOM     19   O  Z9H D   1      29.299  39.416  16.0470  0.00  0.00     0.000 O
ATOM     20   O  Z9H D   1      27.587  40.993  16.9930  0.00  0.00     0.000 OA
ATOM     21   O  Z9H D   1      29.651  41.753  16.3000  0.00  0.00     0.000 OA
ENDBRANCH 5 16
BRANCH 1 22
ATOM     22  O4  GU1 D   2      26.674  41.245  10.0160  0.00  0.00     0.000 O
BRANCH 22 26
ATOM     23  C1  GU1 D   2      22.821  41.291   8.5570  0.00  0.00     0.000 C
ATOM     24  C2  GU1 D   2      23.561  42.616   8.4520  0.00  0.00     0.000 C
ATOM     25  C3  GU1 D   2      25.031  42.382   8.6470  0.00  0.00     0.000 C
ATOM     26  C4  GU1 D   2      25.294  41.622   9.9390  0.00  0.00     0.000 C
ATOM     27  C5  GU1 D   2      24.425  40.361   9.9920  0.00  0.00     0.000 C
ATOM     28  O5  GU1 D   2      23.050  40.697   9.8300  0.00  0.00     0.000 O
ATOM     29   O  GU1 D   2      23.373  43.231   7.1830  0.00  0.00     0.000 O
ATOM     30   C  GU1 D   2      22.347  44.213   7.1660  0.00  0.00     0.000 C
ATOM     31   C  GU1 D   2      26.368  44.046   7.5350  0.00  0.00     0.000 C
ATOM     32   O  GU1 D   2      25.685  43.653   8.7230  0.00  0.00     0.000 O
BRANCH 27 33
ATOM     33   C  GU1 D   2      24.575  39.650  11.3160  0.00  0.00     0.000 C
ATOM     34   O  GU1 D   2      24.170  40.203  12.3180  0.00  0.00     0.000 OA
ATOM     35   O  GU1 D   2      25.088  38.543  11.3710  0.00  0.00     0.000 O
ENDBRANCH 27 33
BRANCH 23 36
ATOM     36  O4  GU6 D   3      21.383  41.274   8.6510  0.00  0.00     0.000 O
BRANCH 36 40
ATOM     37  C1  GU6 D   3      18.151  39.423  10.3310  0.00  0.00     0.000 C
ATOM     38  C2  GU6 D   3      18.972  40.248  11.3150  0.00  0.00     0.000 C
ATOM     39  C3  GU6 D   3      19.961  41.096  10.5600  0.00  0.00     0.000 C
ATOM     40  C4  GU6 D   3      20.125  40.838   9.1250  0.00  0.00     0.000 C
ATOM     41  C5  GU6 D   3      20.039  39.299   8.8570  0.00  0.00     0.000 C
ATOM     42  O5  GU6 D   3      19.032  38.593   9.5910  0.00  0.00     0.000 O
BRANCH 38 43
ATOM     43   O  GU6 D   3      18.129  41.071  12.0980  0.00  0.00     0.000 O
ATOM     44   S  GU6 D   3      18.205  40.804  13.5960  0.00  0.00     0.000 S
ATOM     45   O  GU6 D   3      17.351  39.645  13.9090  0.00  0.00     0.000 OA
ATOM     46   O  GU6 D   3      19.602  40.493  13.9490  0.00  0.00     0.000 O
ATOM     47   O  GU6 D   3      17.763  41.998  14.3090  0.00  0.00     0.000 OA
ENDBRANCH 38 43
BRANCH 39 48
ATOM     48   O  GU6 D   3      20.536  42.244  11.1540  0.00  0.00     0.000 O
ATOM     49   S  GU6 D   3      20.107  43.709  11.0730  0.00  0.00     0.000 S
ATOM     50   O  GU6 D   3      18.708  43.850  11.4930  0.00  0.00     0.000 OA
ATOM     51   O  GU6 D   3      21.015  44.374  12.0180  0.00  0.00     0.000 OA
ATOM     52   O  GU6 D   3      20.268  44.180   9.6790  0.00  0.00     0.000 O
ENDBRANCH 39 48
BRANCH 41 53
ATOM     53   C  GU6 D   3      20.859  38.453   7.9210  0.00  0.00     0.000 C
ATOM     54   O  GU6 D   3      19.958  38.430   6.8450  0.00  0.00     0.000 O
ATOM     55   S  GU6 D   3      20.250  37.578   5.6030  0.00  0.00     0.000 S
ATOM     56   O  GU6 D   3      20.205  36.162   6.0350  0.00  0.00     0.000 O
ATOM     57   O  GU6 D   3      19.213  37.847   4.5960  0.00  0.00     0.000 OA
ATOM     58   O  GU6 D   3      21.602  37.946   5.1260  0.00  0.00     0.000 OA
ENDBRANCH 41 53
BRANCH 37 59
ATOM     59  O4  Z9K D   4      17.186  39.960   9.4020  0.00  0.00     0.000 O
BRANCH 59 63
ATOM     60  C1  Z9K D   4      14.203  41.853  11.1260  0.00  0.00     0.000 C
ATOM     61  C2  Z9K D   4      13.832  40.373  11.4210  0.00  0.00     0.000 C
ATOM     62  C3  Z9K D   4      15.129  39.624  10.8860  0.00  0.00     0.000 C
ATOM     63  C4  Z9K D   4      15.733  40.038   9.4900  0.00  0.00     0.000 C
ATOM     64  C5  Z9K D   4      15.452  41.477   9.0330  0.00  0.00     0.000 C
ATOM     65  O5  Z9K D   4      15.400  42.209  10.2860  0.00  0.00     0.000 O
ATOM     66   O  Z9K D   4      14.971  38.196  10.8120  0.00  0.00     0.000 O
ATOM     67   C  Z9K D   4      15.245  37.513  12.0240  0.00  0.00     0.000 C
BRANCH 61 68
ATOM     68   O  Z9K D   4      13.835  40.219  12.8140  0.00  0.00     0.000 O
ATOM     69   O  Z9K D   4      12.155  38.635  11.7100  0.00  0.00     0.000 OA
ATOM     70   S  Z9K D   4      12.301  39.858  12.4400  0.00  0.00     0.000 S
ATOM     71   O  Z9K D   4      11.585  41.072  12.1900  0.00  0.00     0.000 OA
ATOM     72   O  Z9K D   4      12.341  39.611  13.8450  0.00  0.00     0.000 OA
ENDBRANCH 61 68
BRANCH 64 73
ATOM     73   C  Z9K D   4      16.467  41.920   7.9580  0.00  0.00     0.000 C
ATOM     74   O  Z9K D   4      17.338  42.805   8.2030  0.00  0.00     0.000 O
ATOM     75   O  Z9K D   4      16.473  41.417   6.8070  0.00  0.00     0.000 OA
ENDBRANCH 64 73
BRANCH 60 76
ATOM     76  O4  Z9L D   5      13.371  42.893  10.5850  0.00  0.00     0.000 O
BRANCH 76 80
ATOM     77  C1  Z9L D   5      12.079  46.637  11.1130  0.00  0.00     0.000 C
ATOM     78  C2  Z9L D   5      12.971  46.632   9.7800  0.00  0.00     0.000 C
ATOM     79  C3  Z9L D   5      13.128  45.016   9.3080  0.00  0.00     0.000 C
ATOM     80  C4  Z9L D   5      13.394  44.286  10.7600  0.00  0.00     0.000 C
ATOM     81  C5  Z9L D   5      12.645  44.455  12.1780  0.00  0.00     0.000 C
ATOM     82  O5  Z9L D   5      12.394  45.859  12.3380  0.00  0.00     0.000 O
ATOM     83   C  Z9L D   5       9.777  46.376  11.8390  0.00  0.00     0.000 C
ATOM     84   C  Z9L D   5       9.777  46.376  11.8390  0.00  0.00     0.000 C
BRANCH 78 85
ATOM     85   O  Z9L D   5      12.280  47.331   8.7950  0.00  0.00     0.000 O
ATOM     86   O  Z9L D   5      12.780  49.059   8.1060  0.00  0.00     0.000 OA
ATOM     87   S  Z9L D   5      13.554  48.282   9.0270  0.00  0.00     0.000 S
ATOM     88   O  Z9L D   5      14.724  47.879   8.2850  0.00  0.00     0.000 OA
ATOM     89   O  Z9L D   5      13.570  49.037  10.2320  0.00  0.00     0.000 OA
ENDBRANCH 78 85
BRANCH 79 90
ATOM     90   O  Z9L D   5      14.328  44.798   8.6360  0.00  0.00     0.000 O
ATOM     91   S  Z9L D   5      13.302  44.376   7.4930  0.00  0.00     0.000 S
ATOM     92   O  Z9L D   5      12.270  45.261   7.0190  0.00  0.00     0.000 OA
ATOM     93   O  Z9L D   5      13.091  42.951   7.5430  0.00  0.00     0.000 O
ATOM     94   O  Z9L D   5      14.457  44.604   6.6860  0.00  0.00     0.000 OA
ENDBRANCH 79 90
BRANCH 81 95
ATOM     95   C  Z9L D   5      13.263  43.600  13.4820  0.00  0.00     0.000 C
ATOM     96   S  Z9L D   5      14.410  43.716  15.1060  0.00  0.00     0.000 S
ATOM     97   O  Z9L D   5      14.439  44.342  13.6610  0.00  0.00     0.000 O
ATOM     98   O  Z9L D   5      14.765  42.327  14.9640  0.00  0.00     0.000 OA
ATOM     99   O  Z9L D   5      13.326  44.123  15.9350  0.00  0.00     0.000 OA
ATOM    100   O  Z9L D   5      15.623  44.486  15.2260  0.00  0.00     0.000 O
ENDBRANCH 81 95
ENDBRANCH 76 80
ENDBRANCH 60 76
ENDBRANCH 59 63
ENDBRANCH 37 59
ENDBRANCH 36 40
ENDBRANCH 23 36
ENDBRANCH 22 26
ENDBRANCH 1 22
TORSDOF 19
ENDMDL
MODEL 29
REMARK VINA RESULT:      -3.2     10.845     17.038
ROOT
ATOM      1  C1  Z9H D   1      20.350  42.673  15.9570  0.00  0.00     0.000 C
ATOM      2  C2  Z9H D   1      20.631  44.176  16.1930  0.00  0.00     0.000 C
ATOM      3  C3  Z9H D   1      22.148  44.067  16.5400  0.00  0.00     0.000 C
ATOM      4  C4  Z9H D   1      22.516  42.991  17.6440  0.00  0.00     0.000 C
ATOM      5  C5  Z9H D   1      21.962  41.511  17.6270  0.00  0.00     0.000 C
ATOM      6  O5  Z9H D   1      20.678  41.692  16.9800  0.00  0.00     0.000 O
ATOM      7   O  Z9H D   1      22.703  45.339  16.8810  0.00  0.00     0.000 O
ATOM      8   C  Z9H D   1      23.409  46.006  15.8220  0.00  0.00     0.000 C
ATOM      9   O  Z9H D   1      23.945  42.908  17.6440  0.00  0.00     0.000 O
ATOM     10   C  Z9H D   1      24.607  43.651  18.6730  0.00  0.00     0.000 C
ENDROOT
BRANCH 2 11
ATOM     11   O  Z9H D   1      20.591  44.690  14.8880  0.00  0.00     0.000 O
ATOM     12   O  Z9H D   1      19.282  45.897  14.2640  0.00  0.00     0.000 OA
ATOM     13   S  Z9H D   1      19.363  45.405  15.5980  0.00  0.00     0.000 S
ATOM     14   O  Z9H D   1      19.878  46.359  16.5380  0.00  0.00     0.000 OA
ATOM     15   O  Z9H D   1      18.285  44.479  15.8600  0.00  0.00     0.000 O
ENDBRANCH 2 11
BRANCH 5 16
ATOM     16   C  Z9H D   1      22.097  40.687  19.0780  0.00  0.00     0.000 C
ATOM     17   S  Z9H D   1      22.343  38.871  19.9040  0.00  0.00     0.000 S
ATOM     18   O  Z9H D   1      22.956  39.663  18.6370  0.00  0.00     0.000 O
ATOM     19   O  Z9H D   1      20.957  38.523  19.7830  0.00  0.00     0.000 O
ATOM     20   O  Z9H D   1      22.925  39.349  21.1090  0.00  0.00     0.000 OA
ATOM     21   O  Z9H D   1      23.200  37.848  19.3800  0.00  0.00     0.000 OA
ENDBRANCH 5 16
BRANCH 1 22
ATOM     22  O4  GU1 D   2      21.043  42.090  14.7950  0.00  0.00     0.000 O
BRANCH 22 26
ATOM     23  C1  GU1 D   2      20.711  39.415  11.6790  0.00  0.00     0.000 C
ATOM     24  C2  GU1 D   2      19.415  40.112  12.0640  0.00  0.00     0.000 C
ATOM     25  C3  GU1 D   2      19.728  41.307  12.9180  0.00  0.00     0.000 C
ATOM     26  C4  GU1 D   2      20.602  40.917  14.1010  0.00  0.00     0.000 C
ATOM     27  C5  GU1 D   2      21.824  40.131  13.6140  0.00  0.00     0.000 C
ATOM     28  O5  GU1 D   2      21.417  39.004  12.8440  0.00  0.00     0.000 O
ATOM     29   O  GU1 D   2      18.692  40.558  10.9240  0.00  0.00     0.000 O
ATOM     30   C  GU1 D   2      17.668  39.666  10.5080  0.00  0.00     0.000 C
ATOM     31   C  GU1 D   2      18.039  43.012  12.7420  0.00  0.00     0.000 C
ATOM     32   O  GU1 D   2      18.498  41.842  13.4150  0.00  0.00     0.000 O
BRANCH 27 33
ATOM     33   C  GU1 D   2      22.647  39.626  14.7750  0.00  0.00     0.000 C
ATOM     34   O  GU1 D   2      22.181  38.752  15.4770  0.00  0.00     0.000 OA
ATOM     35   O  GU1 D   2      23.756  40.087  14.9970  0.00  0.00     0.000 O
ENDBRANCH 27 33
BRANCH 23 36
ATOM     36  O4  GU6 D   3      20.674  38.109  11.0700  0.00  0.00     0.000 O
BRANCH 36 40
ATOM     37  C1  GU6 D   3      19.342  35.602   8.1320  0.00  0.00     0.000 C
ATOM     38  C2  GU6 D   3      19.470  37.056   7.6930  0.00  0.00     0.000 C
ATOM     39  C3  GU6 D   3      20.216  37.836   8.7440  0.00  0.00     0.000 C
ATOM     40  C4  GU6 D   3      20.473  37.175  10.0280  0.00  0.00     0.000 C
ATOM     41  C5  GU6 D   3      19.238  36.301  10.4240  0.00  0.00     0.000 C
ATOM     42  O5  GU6 D   3      18.630  35.561   9.3590  0.00  0.00     0.000 O
BRANCH 38 43
ATOM     43   O  GU6 D   3      20.148  37.144   6.4550  0.00  0.00     0.000 O
ATOM     44   S  GU6 D   3      19.362  37.849   5.3560  0.00  0.00     0.000 S
ATOM     45   O  GU6 D   3      18.419  36.885   4.7630  0.00  0.00     0.000 OA
ATOM     46   O  GU6 D   3      18.610  38.965   5.9580  0.00  0.00     0.000 O
ATOM     47   O  GU6 D   3      20.300  38.357   4.3600  0.00  0.00     0.000 OA
ENDBRANCH 38 43
BRANCH 39 48
ATOM     48   O  GU6 D   3      20.845  39.063   8.4280  0.00  0.00     0.000 O
ATOM     49   S  GU6 D   3      22.299  39.352   8.0570  0.00  0.00     0.000 S
ATOM     50   O  GU6 D   3      22.701  38.530   6.9100  0.00  0.00     0.000 OA
ATOM     51   O  GU6 D   3      22.275  40.779   7.7050  0.00  0.00     0.000 OA
ATOM     52   O  GU6 D   3      23.160  39.053   9.2220  0.00  0.00     0.000 O
ENDBRANCH 39 48
BRANCH 41 53
ATOM     53   C  GU6 D   3      18.603  36.115  11.7750  0.00  0.00     0.000 C
ATOM     54   O  GU6 D   3      17.492  35.363  11.3620  0.00  0.00     0.000 O
ATOM     55   S  GU6 D   3      16.398  34.974  12.3660  0.00  0.00     0.000 S
ATOM     56   O  GU6 D   3      15.741  36.233  12.7910  0.00  0.00     0.000 O
ATOM     57   O  GU6 D   3      15.437  34.089  11.6920  0.00  0.00     0.000 OA
ATOM     58   O  GU6 D   3      17.065  34.311  13.5080  0.00  0.00     0.000 OA
ENDBRANCH 41 53
BRANCH 37 59
ATOM     59  O4  Z9K D   4      20.437  34.669   8.2390  0.00  0.00     0.000 O
BRANCH 59 63
ATOM     60  C1  Z9K D   4      20.888  30.849   7.4330  0.00  0.00     0.000 C
ATOM     61  C2  Z9K D   4      19.574  30.829   8.2630  0.00  0.00     0.000 C
ATOM     62  C3  Z9K D   4      19.298  32.386   8.4290  0.00  0.00     0.000 C
ATOM     63  C4  Z9K D   4      20.488  33.338   8.8310  0.00  0.00     0.000 C
ATOM     64  C5  Z9K D   4      21.896  32.860   8.4430  0.00  0.00     0.000 C
ATOM     65  O5  Z9K D   4      21.658  32.122   7.2150  0.00  0.00     0.000 O
ATOM     66   O  Z9K D   4      18.254  32.681   9.3730  0.00  0.00     0.000 O
ATOM     67   C  Z9K D   4      16.945  32.647   8.8280  0.00  0.00     0.000 C
BRANCH 61 68
ATOM     68   O  Z9K D   4      18.565  30.337   7.4240  0.00  0.00     0.000 O
ATOM     69   O  Z9K D   4      18.159  29.657   9.8580  0.00  0.00     0.000 OA
ATOM     70   S  Z9K D   4      18.621  29.204   8.5800  0.00  0.00     0.000 S
ATOM     71   O  Z9K D   4      19.754  28.361   8.3520  0.00  0.00     0.000 OA
ATOM     72   O  Z9K D   4      17.531  28.764   7.7710  0.00  0.00     0.000 OA
ENDBRANCH 61 68
BRANCH 64 73
ATOM     73   C  Z9K D   4      22.890  34.040   8.4190  0.00  0.00     0.000 C
ATOM     74   O  Z9K D   4      23.233  34.630   9.4840  0.00  0.00     0.000 O
ATOM     75   O  Z9K D   4      23.398  34.455   7.3490  0.00  0.00     0.000 OA
ENDBRANCH 64 73
BRANCH 60 76
ATOM     76  O4  Z9L D   5      22.060  30.032   7.5940  0.00  0.00     0.000 O
BRANCH 76 80
ATOM     77  C1  Z9L D   5      24.568  27.653   5.5890  0.00  0.00     0.000 C
ATOM     78  C2  Z9L D   5      25.450  28.826   6.2350  0.00  0.00     0.000 C
ATOM     79  C3  Z9L D   5      24.496  29.547   7.4320  0.00  0.00     0.000 C
ATOM     80  C4  Z9L D   5      23.036  29.618   6.6730  0.00  0.00     0.000 C
ATOM     81  C5  Z9L D   5      22.237  28.508   5.8180  0.00  0.00     0.000 C
ATOM     82  O5  Z9L D   5      23.216  27.842   5.0060  0.00  0.00     0.000 O
ATOM     83   C  Z9L D   5      23.774  25.410   6.0710  0.00  0.00     0.000 C
ATOM     84   C  Z9L D   5      23.774  25.410   6.0710  0.00  0.00     0.000 C
BRANCH 78 85
ATOM     85   O  Z9L D   5      26.569  28.249   6.8290  0.00  0.00     0.000 O
ATOM     86   O  Z9L D   5      28.374  28.410   6.1780  0.00  0.00     0.000 OA
ATOM     87   S  Z9L D   5      27.241  29.102   5.6450  0.00  0.00     0.000 S
ATOM     88   O  Z9L D   5      27.458  30.488   5.9780  0.00  0.00     0.000 OA
ATOM     89   O  Z9L D   5      27.077  28.594   4.3260  0.00  0.00     0.000 OA
ENDBRANCH 78 85
BRANCH 79 90
ATOM     90   O  Z9L D   5      24.818  30.891   7.5960  0.00  0.00     0.000 O
ATOM     91   S  Z9L D   5      25.067  30.375   9.0820  0.00  0.00     0.000 S
ATOM     92   O  Z9L D   5      25.970  29.295   9.3810  0.00  0.00     0.000 OA
ATOM     93   O  Z9L D   5      23.874  30.583   9.8650  0.00  0.00     0.000 O
ATOM     94   O  Z9L D   5      25.822  31.585   9.1340  0.00  0.00     0.000 OA
ENDBRANCH 79 90
BRANCH 81 95
ATOM     95   C  Z9L D   5      20.794  28.979   5.1050  0.00  0.00     0.000 C
ATOM     96   S  Z9L D   5      19.650  28.811   3.4830  0.00  0.00     0.000 S
ATOM     97   O  Z9L D   5      21.198  28.885   3.7660  0.00  0.00     0.000 O
ATOM     98   O  Z9L D   5      19.124  30.133   3.7080  0.00  0.00     0.000 OA
ATOM     99   O  Z9L D   5      18.985  27.654   3.9790  0.00  0.00     0.000 OA
ATOM    100   O  Z9L D   5      20.125  28.735   2.1230  0.00  0.00     0.000 O
ENDBRANCH 81 95
ENDBRANCH 76 80
ENDBRANCH 60 76
ENDBRANCH 59 63
ENDBRANCH 37 59
ENDBRANCH 36 40
ENDBRANCH 23 36
ENDBRANCH 22 26
ENDBRANCH 1 22
TORSDOF 19
ENDMDL
MODEL 30
REMARK VINA RESULT:      -3.1     12.174     21.229
ROOT
ATOM      1  C1  Z9H D   1      31.161  38.608  14.8800  0.00  0.00     0.000 C
ATOM      2  C2  Z9H D   1      31.861  39.731  15.6810  0.00  0.00     0.000 C
ATOM      3  C3  Z9H D   1      33.336  39.369  15.3310  0.00  0.00     0.000 C
ATOM      4  C4  Z9H D   1      33.734  37.851  15.5510  0.00  0.00     0.000 C
ATOM      5  C5  Z9H D   1      32.852  36.644  15.0380  0.00  0.00     0.000 C
ATOM      6  O5  Z9H D   1      31.521  37.215  15.0970  0.00  0.00     0.000 O
ATOM      7   O  Z9H D   1      34.262  40.227  16.0000  0.00  0.00     0.000 O
ATOM      8   C  Z9H D   1      34.770  41.318  15.2140  0.00  0.00     0.000 C
ATOM      9   O  Z9H D   1      35.034  37.701  14.9710  0.00  0.00     0.000 O
ATOM     10   C  Z9H D   1      36.129  37.739  15.8920  0.00  0.00     0.000 C
ENDROOT
BRANCH 2 11
ATOM     11   O  Z9H D   1      31.569  40.866  14.9090  0.00  0.00     0.000 O
ATOM     12   O  Z9H D   1      30.479  42.292  15.4890  0.00  0.00     0.000 OA
ATOM     13   S  Z9H D   1      30.822  41.158  16.2790  0.00  0.00     0.000 S
ATOM     14   O  Z9H D   1      31.810  41.429  17.2840  0.00  0.00     0.000 OA
ATOM     15   O  Z9H D   1      29.672  40.300  16.4540  0.00  0.00     0.000 O
ENDBRANCH 2 11
BRANCH 5 16
ATOM     16   C  Z9H D   1      33.197  35.165  15.7410  0.00  0.00     0.000 C
ATOM     17   S  Z9H D   1      32.383  33.478  16.4710  0.00  0.00     0.000 S
ATOM     18   O  Z9H D   1      32.119  34.439  15.2010  0.00  0.00     0.000 O
ATOM     19   O  Z9H D   1      32.077  34.063  17.7440  0.00  0.00     0.000 O
ATOM     20   O  Z9H D   1      33.527  32.666  16.2410  0.00  0.00     0.000 OA
ATOM     21   O  Z9H D   1      31.250  32.808  15.9020  0.00  0.00     0.000 OA
ENDBRANCH 5 16
BRANCH 1 22
ATOM     22  O4  GU1 D   2      31.319  38.700  13.4180  0.00  0.00     0.000 O
BRANCH 22 26
ATOM     23  C1  GU1 D   2      29.441  38.136   9.7950  0.00  0.00     0.000 C
ATOM     24  C2  GU1 D   2      28.528  38.583  10.9260  0.00  0.00     0.000 C
ATOM     25  C3  GU1 D   2      29.360  39.115  12.0560  0.00  0.00     0.000 C
ATOM     26  C4  GU1 D   2      30.421  38.107  12.4730  0.00  0.00     0.000 C
ATOM     27  C5  GU1 D   2      31.214  37.644  11.2470  0.00  0.00     0.000 C
ATOM     28  O5  GU1 D   2      30.336  37.128  10.2510  0.00  0.00     0.000 O
ATOM     29   O  GU1 D   2      27.631  39.607  10.5130  0.00  0.00     0.000 O
ATOM     30   C  GU1 D   2      26.345  39.131  10.1430  0.00  0.00     0.000 C
ATOM     31   C  GU1 D   2      28.163  40.732  13.3770  0.00  0.00     0.000 C
ATOM     32   O  GU1 D   2      28.500  39.362  13.1730  0.00  0.00     0.000 O
BRANCH 27 33
ATOM     33   C  GU1 D   2      32.194  36.553  11.6110  0.00  0.00     0.000 C
ATOM     34   O  GU1 D   2      31.757  35.463  11.9160  0.00  0.00     0.000 OA
ATOM     35   O  GU1 D   2      33.396  36.767  11.5920  0.00  0.00     0.000 O
ENDBRANCH 27 33
BRANCH 23 36
ATOM     36  O4  GU6 D   3      28.908  37.364   8.7000  0.00  0.00     0.000 O
BRANCH 36 40
ATOM     37  C1  GU6 D   3      26.422  35.861   5.8270  0.00  0.00     0.000 C
ATOM     38  C2  GU6 D   3      27.644  34.994   6.1030  0.00  0.00     0.000 C
ATOM     39  C3  GU6 D   3      28.340  35.483   7.3460  0.00  0.00     0.000 C
ATOM     40  C4  GU6 D   3      27.899  36.762   7.9150  0.00  0.00     0.000 C
ATOM     41  C5  GU6 D   3      27.556  37.758   6.7590  0.00  0.00     0.000 C
ATOM     42  O5  GU6 D   3      26.851  37.202   5.6440  0.00  0.00     0.000 O
BRANCH 38 43
ATOM     43   O  GU6 D   3      27.267  33.640   6.2620  0.00  0.00     0.000 O
ATOM     44   S  GU6 D   3      27.758  32.716   5.1550  0.00  0.00     0.000 S
ATOM     45   O  GU6 D   3      26.840  32.829   4.0090  0.00  0.00     0.000 OA
ATOM     46   O  GU6 D   3      29.108  33.146   4.7470  0.00  0.00     0.000 O
ATOM     47   O  GU6 D   3      27.803  31.350   5.6680  0.00  0.00     0.000 OA
ENDBRANCH 38 43
BRANCH 39 48
ATOM     48   O  GU6 D   3      29.218  34.640   8.0670  0.00  0.00     0.000 O
ATOM     49   S  GU6 D   3      28.946  33.745   9.2760  0.00  0.00     0.000 S
ATOM     50   O  GU6 D   3      27.848  32.817   8.9820  0.00  0.00     0.000 OA
ATOM     51   O  GU6 D   3      30.215  33.028   9.4520  0.00  0.00     0.000 OA
ATOM     52   O  GU6 D   3      28.592  34.597  10.4330  0.00  0.00     0.000 O
ENDBRANCH 39 48
BRANCH 41 53
ATOM     53   C  GU6 D   3      27.851  39.231   6.6590  0.00  0.00     0.000 C
ATOM     54   O  GU6 D   3      27.020  39.517   5.5640  0.00  0.00     0.000 O
ATOM     55   S  GU6 D   3      27.014  40.918   4.9380  0.00  0.00     0.000 S
ATOM     56   O  GU6 D   3      28.351  41.123   4.3360  0.00  0.00     0.000 O
ATOM     57   O  GU6 D   3      25.966  40.966   3.9070  0.00  0.00     0.000 OA
ATOM     58   O  GU6 D   3      26.767  41.886   6.0300  0.00  0.00     0.000 OA
ENDBRANCH 41 53
BRANCH 37 59
ATOM     59  O4  Z9K D   4      25.232  35.899   6.6410  0.00  0.00     0.000 O
BRANCH 59 63
ATOM     60  C1  Z9K D   4      21.703  35.251   8.2470  0.00  0.00     0.000 C
ATOM     61  C2  Z9K D   4      22.012  33.860   7.6270  0.00  0.00     0.000 C
ATOM     62  C3  Z9K D   4      23.511  34.072   7.1420  0.00  0.00     0.000 C
ATOM     63  C4  Z9K D   4      23.890  35.396   6.3750  0.00  0.00     0.000 C
ATOM     64  C5  Z9K D   4      23.014  36.622   6.6720  0.00  0.00     0.000 C
ATOM     65  O5  Z9K D   4      22.633  36.418   8.0580  0.00  0.00     0.000 O
ATOM     66   O  Z9K D   4      23.994  33.008   6.3030  0.00  0.00     0.000 O
ATOM     67   C  Z9K D   4      24.525  31.899   7.0100  0.00  0.00     0.000 C
BRANCH 61 68
ATOM     68   O  Z9K D   4      22.067  32.941   8.6840  0.00  0.00     0.000 O
ATOM     69   O  Z9K D   4      21.131  31.857   6.5630  0.00  0.00     0.000 OA
ATOM     70   S  Z9K D   4      20.791  32.406   7.8410  0.00  0.00     0.000 S
ATOM     71   O  Z9K D   4      19.665  33.244   8.1180  0.00  0.00     0.000 OA
ATOM     72   O  Z9K D   4      20.916  31.422   8.8670  0.00  0.00     0.000 OA
ENDBRANCH 61 68
BRANCH 64 73
ATOM     73   C  Z9K D   4      23.746  37.926   6.2880  0.00  0.00     0.000 C
ATOM     74   O  Z9K D   4      24.229  38.691   7.1730  0.00  0.00     0.000 O
ATOM     75   O  Z9K D   4      23.894  38.273   5.0910  0.00  0.00     0.000 OA
ENDBRANCH 64 73
BRANCH 60 76
ATOM     76  O4  Z9L D   5      20.506  36.038   8.1260  0.00  0.00     0.000 O
BRANCH 76 80
ATOM     77  C1  Z9L D   5      18.221  38.811   9.8760  0.00  0.00     0.000 C
ATOM     78  C2  Z9L D   5      18.854  39.483   8.5640  0.00  0.00     0.000 C
ATOM     79  C3  Z9L D   5      19.426  38.218   7.5980  0.00  0.00     0.000 C
ATOM     80  C4  Z9L D   5      20.126  37.247   8.7310  0.00  0.00     0.000 C
ATOM     81  C5  Z9L D   5      19.591  36.747  10.1670  0.00  0.00     0.000 C
ATOM     82  O5  Z9L D   5      18.948  37.878  10.7740  0.00  0.00     0.000 O
ATOM     83   C  Z9L D   5      16.255  37.589  10.6050  0.00  0.00     0.000 C
ATOM     84   C  Z9L D   5      16.255  37.589  10.6050  0.00  0.00     0.000 C
BRANCH 78 85
ATOM     85   O  Z9L D   5      17.837  40.150   7.8870  0.00  0.00     0.000 O
ATOM     86   O  Z9L D   5      17.635  42.063   7.8000  0.00  0.00     0.000 OA
ATOM     87   S  Z9L D   5      18.745  41.377   8.3870  0.00  0.00     0.000 S
ATOM     88   O  Z9L D   5      19.862  41.664   7.5220  0.00  0.00     0.000 OA
ATOM     89   O  Z9L D   5      18.685  41.686   9.7750  0.00  0.00     0.000 OA
ENDBRANCH 78 85
BRANCH 79 90
ATOM     90   O  Z9L D   5      20.515  38.619   6.8290  0.00  0.00     0.000 O
ATOM     91   S  Z9L D   5      19.571  38.050   5.6790  0.00  0.00     0.000 S
ATOM     92   O  Z9L D   5      18.229  38.529   5.4760  0.00  0.00     0.000 OA
ATOM     93   O  Z9L D   5      19.915  36.674   5.4170  0.00  0.00     0.000 O
ATOM     94   O  Z9L D   5      20.434  38.859   4.8820  0.00  0.00     0.000 OA
ENDBRANCH 79 90
BRANCH 81 95
ATOM     95   C  Z9L D   5      20.637  35.827  11.1000  0.00  0.00     0.000 C
ATOM     96   S  Z9L D   5      21.989  35.882  12.5620  0.00  0.00     0.000 S
ATOM     97   O  Z9L D   5      21.591  36.821  11.3630  0.00  0.00     0.000 O
ATOM     98   O  Z9L D   5      22.663  34.744  11.9920  0.00  0.00     0.000 OA
ATOM     99   O  Z9L D   5      21.005  35.727  13.5800  0.00  0.00     0.000 OA
ATOM    100   O  Z9L D   5      22.959  36.928  12.7730  0.00  0.00     0.000 O
ENDBRANCH 81 95
ENDBRANCH 76 80
ENDBRANCH 60 76
ENDBRANCH 59 63
ENDBRANCH 37 59
ENDBRANCH 36 40
ENDBRANCH 23 36
ENDBRANCH 22 26
ENDBRANCH 1 22
TORSDOF 19
ENDMDL
MODEL 31
REMARK VINA RESULT:      -3.0     13.366     19.895
ROOT
ATOM      1  C1  Z9H D   1      18.460  46.666   8.3680  0.00  0.00     0.000 C
ATOM      2  C2  Z9H D   1      19.575  47.379   7.5660  0.00  0.00     0.000 C
ATOM      3  C3  Z9H D   1      20.756  47.123   8.5520  0.00  0.00     0.000 C
ATOM      4  C4  Z9H D   1      20.474  47.508  10.0630  0.00  0.00     0.000 C
ATOM      5  C5  Z9H D   1      19.161  47.083  10.8330  0.00  0.00     0.000 C
ATOM      6  O5  Z9H D   1      18.197  47.034   9.7510  0.00  0.00     0.000 O
ATOM      7   O  Z9H D   1      21.962  47.739   8.0980  0.00  0.00     0.000 O
ATOM      8   C  Z9H D   1      22.879  46.869   7.4140  0.00  0.00     0.000 C
ATOM      9   O  Z9H D   1      21.585  46.996  10.8080  0.00  0.00     0.000 O
ATOM     10   C  Z9H D   1      22.599  47.950  11.1370  0.00  0.00     0.000 C
ENDROOT
BRANCH 2 11
ATOM     11   O  Z9H D   1      19.785  46.486   6.5030  0.00  0.00     0.000 O
ATOM     12   O  Z9H D   1      19.377  46.869   4.7020  0.00  0.00     0.000 OA
ATOM     13   S  Z9H D   1      19.213  47.782   5.7830  0.00  0.00     0.000 S
ATOM     14   O  Z9H D   1      20.216  48.807   5.8340  0.00  0.00     0.000 OA
ATOM     15   O  Z9H D   1      17.810  47.976   6.0690  0.00  0.00     0.000 O
ENDBRANCH 2 11
BRANCH 5 16
ATOM     16   C  Z9H D   1      18.852  47.942  12.2360  0.00  0.00     0.000 C
ATOM     17   S  Z9H D   1      17.403  48.551  13.4880  0.00  0.00     0.000 S
ATOM     18   O  Z9H D   1      17.742  47.197  12.6760  0.00  0.00     0.000 O
ATOM     19   O  Z9H D   1      17.032  49.668  12.6680  0.00  0.00     0.000 O
ATOM     20   O  Z9H D   1      18.247  48.665  14.6260  0.00  0.00     0.000 OA
ATOM     21   O  Z9H D   1      16.267  47.761  13.8640  0.00  0.00     0.000 OA
ENDBRANCH 5 16
BRANCH 1 22
ATOM     22  O4  GU1 D   2      18.631  45.209   8.5070  0.00  0.00     0.000 O
BRANCH 22 26
ATOM     23  C1  GU1 D   2      16.623  41.617   8.6850  0.00  0.00     0.000 C
ATOM     24  C2  GU1 D   2      15.931  42.697   7.8670  0.00  0.00     0.000 C
ATOM     25  C3  GU1 D   2      16.910  43.793   7.5610  0.00  0.00     0.000 C
ATOM     26  C4  GU1 D   2      17.572  44.302   8.8330  0.00  0.00     0.000 C
ATOM     27  C5  GU1 D   2      18.144  43.128   9.6320  0.00  0.00     0.000 C
ATOM     28  O5  GU1 D   2      17.130  42.163   9.8970  0.00  0.00     0.000 O
ATOM     29   O  GU1 D   2      15.429  42.192   6.6350  0.00  0.00     0.000 O
ATOM     30   C  GU1 D   2      14.052  41.844   6.6750  0.00  0.00     0.000 C
ATOM     31   C  GU1 D   2      16.351  44.966   5.5350  0.00  0.00     0.000 C
ATOM     32   O  GU1 D   2      16.200  44.875   6.9490  0.00  0.00     0.000 O
BRANCH 27 33
ATOM     33   C  GU1 D   2      18.701  43.589  10.9580  0.00  0.00     0.000 C
ATOM     34   O  GU1 D   2      17.922  43.920  11.8280  0.00  0.00     0.000 OA
ATOM     35   O  GU1 D   2      19.907  43.623  11.1470  0.00  0.00     0.000 O
ENDBRANCH 27 33
BRANCH 23 36
ATOM     36  O4  GU6 D   3      15.845  40.579   9.3130  0.00  0.00     0.000 O
BRANCH 36 40
ATOM     37  C1  GU6 D   3      14.750  38.902  12.8750  0.00  0.00     0.000 C
ATOM     38  C2  GU6 D   3      14.053  40.223  12.5730  0.00  0.00     0.000 C
ATOM     39  C3  GU6 D   3      14.311  40.614  11.1410  0.00  0.00     0.000 C
ATOM     40  C4  GU6 D   3      15.309  39.841  10.3930  0.00  0.00     0.000 C
ATOM     41  C5  GU6 D   3      16.500  39.473  11.3370  0.00  0.00     0.000 C
ATOM     42  O5  GU6 D   3      16.144  39.068  12.6640  0.00  0.00     0.000 O
BRANCH 38 43
ATOM     43   O  GU6 D   3      12.661  40.114  12.8000  0.00  0.00     0.000 O
ATOM     44   S  GU6 D   3      12.230  40.425  14.2280  0.00  0.00     0.000 S
ATOM     45   O  GU6 D   3      12.452  39.227  15.0560  0.00  0.00     0.000 OA
ATOM     46   O  GU6 D   3      13.058  41.533  14.7380  0.00  0.00     0.000 O
ATOM     47   O  GU6 D   3      10.824  40.814  14.2200  0.00  0.00     0.000 OA
ENDBRANCH 38 43
BRANCH 39 48
ATOM     48   O  GU6 D   3      13.465  41.532  10.4750  0.00  0.00     0.000 O
ATOM     49   S  GU6 D   3      13.248  43.024  10.7240  0.00  0.00     0.000 S
ATOM     50   O  GU6 D   3      14.530  43.737  10.6690  0.00  0.00     0.000 OA
ATOM     51   O  GU6 D   3      12.371  43.422   9.6150  0.00  0.00     0.000 OA
ATOM     52   O  GU6 D   3      12.626  43.204  12.0540  0.00  0.00     0.000 O
ENDBRANCH 39 48
BRANCH 41 53
ATOM     53   C  GU6 D   3      17.976  39.469  11.0420  0.00  0.00     0.000 C
ATOM     54   O  GU6 D   3      17.975  38.448  10.0780  0.00  0.00     0.000 O
ATOM     55   S  GU6 D   3      19.295  37.932   9.4900  0.00  0.00     0.000 S
ATOM     56   O  GU6 D   3      20.027  37.271  10.5960  0.00  0.00     0.000 O
ATOM     57   O  GU6 D   3      18.988  36.969   8.4220  0.00  0.00     0.000 OA
ATOM     58   O  GU6 D   3      20.041  39.107   8.9860  0.00  0.00     0.000 OA
ENDBRANCH 41 53
BRANCH 37 59
ATOM     59  O4  Z9K D   4      14.380  37.623  12.3170  0.00  0.00     0.000 O
BRANCH 59 63
ATOM     60  C1  Z9K D   4      12.456  34.376  13.4100  0.00  0.00     0.000 C
ATOM     61  C2  Z9K D   4      13.326  34.648  14.6690  0.00  0.00     0.000 C
ATOM     62  C3  Z9K D   4      13.961  36.057  14.2970  0.00  0.00     0.000 C
ATOM     63  C4  Z9K D   4      14.548  36.278  12.8510  0.00  0.00     0.000 C
ATOM     64  C5  Z9K D   4      13.947  35.405  11.7380  0.00  0.00     0.000 C
ATOM     65  O5  Z9K D   4      12.574  35.227  12.1760  0.00  0.00     0.000 O
ATOM     66   O  Z9K D   4      15.015  36.460  15.1890  0.00  0.00     0.000 O
ATOM     67   C  Z9K D   4      14.570  37.123  16.3610  0.00  0.00     0.000 C
BRANCH 61 68
ATOM     68   O  Z9K D   4      12.446  34.881  15.7340  0.00  0.00     0.000 O
ATOM     69   O  Z9K D   4      14.600  33.760  16.5410  0.00  0.00     0.000 OA
ATOM     70   S  Z9K D   4      13.220  33.546  16.2250  0.00  0.00     0.000 S
ATOM     71   O  Z9K D   4      12.687  32.416  15.5280  0.00  0.00     0.000 OA
ATOM     72   O  Z9K D   4      12.389  33.848  17.3450  0.00  0.00     0.000 OA
ENDBRANCH 61 68
BRANCH 64 73
ATOM     73   C  Z9K D   4      14.208  36.028  10.3510  0.00  0.00     0.000 C
ATOM     74   O  Z9K D   4      15.376  36.349   9.9850  0.00  0.00     0.000 O
ATOM     75   O  Z9K D   4      13.278  36.234   9.5320  0.00  0.00     0.000 OA
ENDBRANCH 64 73
BRANCH 60 76
ATOM     76  O4  Z9L D   5      12.292  33.145  12.6850  0.00  0.00     0.000 O
BRANCH 76 80
ATOM     77  C1  Z9L D   5       9.630  30.694  10.9890  0.00  0.00     0.000 C
ATOM     78  C2  Z9L D   5      10.542  31.285   9.8100  0.00  0.00     0.000 C
ATOM     79  C3  Z9L D   5      11.922  31.933  10.5420  0.00  0.00     0.000 C
ATOM     80  C4  Z9L D   5      11.261  32.691  11.8470  0.00  0.00     0.000 C
ATOM     81  C5  Z9L D   5      10.163  32.187  12.9150  0.00  0.00     0.000 C
ATOM     82  O5  Z9L D   5       9.167  31.476  12.1640  0.00  0.00     0.000 O
ATOM     83   C  Z9L D   5       9.506  28.806  12.5100  0.00  0.00     0.000 C
ATOM     84   C  Z9L D   5       9.506  28.806  12.5100  0.00  0.00     0.000 C
BRANCH 78 85
ATOM     85   O  Z9L D   5      10.917  30.229   8.9840  0.00  0.00     0.000 O
ATOM     86   O  Z9L D   5      10.298  29.961   7.1800  0.00  0.00     0.000 OA
ATOM     87   S  Z9L D   5      10.014  31.108   7.9870  0.00  0.00     0.000 S
ATOM     88   O  Z9L D   5      10.729  32.193   7.3600  0.00  0.00     0.000 OA
ATOM     89   O  Z9L D   5       8.610  31.074   8.2080  0.00  0.00     0.000 OA
ENDBRANCH 78 85
BRANCH 79 90
ATOM     90   O  Z9L D   5      12.436  32.995   9.8040  0.00  0.00     0.000 O
ATOM     91   S  Z9L D   5      13.695  32.020   9.7800  0.00  0.00     0.000 S
ATOM     92   O  Z9L D   5      13.614  30.670   9.2880  0.00  0.00     0.000 OA
ATOM     93   O  Z9L D   5      14.585  32.363  10.8610  0.00  0.00     0.000 O
ATOM     94   O  Z9L D   5      14.035  32.854   8.6730  0.00  0.00     0.000 OA
ENDBRANCH 79 90
BRANCH 81 95
ATOM     95   C  Z9L D   5       9.655  33.288  14.0740  0.00  0.00     0.000 C
ATOM     96   S  Z9L D   5       8.244  34.609  14.5550  0.00  0.00     0.000 S
ATOM     97   O  Z9L D   5       8.956  34.157  13.2250  0.00  0.00     0.000 O
ATOM     98   O  Z9L D   5       9.208  35.378  15.3000  0.00  0.00     0.000 OA
ATOM     99   O  Z9L D   5       7.432  33.625  15.1880  0.00  0.00     0.000 OA
ATOM    100   O  Z9L D   5       7.569  35.492  13.6360  0.00  0.00     0.000 O
ENDBRANCH 81 95
ENDBRANCH 76 80
ENDBRANCH 60 76
ENDBRANCH 59 63
ENDBRANCH 37 59
ENDBRANCH 36 40
ENDBRANCH 23 36
ENDBRANCH 22 26
ENDBRANCH 1 22
TORSDOF 19
ENDMDL
MODEL 32
REMARK VINA RESULT:      -2.9     13.906     19.986
ROOT
ATOM      1  C1  Z9H D   1      18.272  47.258   7.4560  0.00  0.00     0.000 C
ATOM      2  C2  Z9H D   1      19.530  47.986   6.9250  0.00  0.00     0.000 C
ATOM      3  C3  Z9H D   1      20.384  47.933   8.2290  0.00  0.00     0.000 C
ATOM      4  C4  Z9H D   1      19.652  48.436   9.5410  0.00  0.00     0.000 C
ATOM      5  C5  Z9H D   1      18.198  47.973   9.9510  0.00  0.00     0.000 C
ATOM      6  O5  Z9H D   1      17.597  47.733   8.6530  0.00  0.00     0.000 O
ATOM      7   O  Z9H D   1      21.634  48.608   8.0670  0.00  0.00     0.000 O
ATOM      8   C  Z9H D   1      22.758  47.761   7.7800  0.00  0.00     0.000 C
ATOM      9   O  Z9H D   1      20.524  48.100  10.6260  0.00  0.00     0.000 O
ATOM     10   C  Z9H D   1      21.341  49.168  11.1150  0.00  0.00     0.000 C
ENDROOT
BRANCH 2 11
ATOM     11   O  Z9H D   1      20.093  47.018   6.0800  0.00  0.00     0.000 O
ATOM     12   O  Z9H D   1      20.147  47.155   4.1990  0.00  0.00     0.000 OA
ATOM     13   S  Z9H D   1      19.622  48.151   5.0710  0.00  0.00     0.000 S
ATOM     14   O  Z9H D   1      20.482  49.288   5.2370  0.00  0.00     0.000 OA
ATOM     15   O  Z9H D   1      18.183  48.206   4.9640  0.00  0.00     0.000 O
ENDBRANCH 2 11
BRANCH 5 16
ATOM     16   C  Z9H D   1      17.444  48.933  11.0960  0.00  0.00     0.000 C
ATOM     17   S  Z9H D   1      15.717  49.842  11.5790  0.00  0.00     0.000 S
ATOM     18   O  Z9H D   1      16.143  48.415  10.9530  0.00  0.00     0.000 O
ATOM     19   O  Z9H D   1      15.963  50.970  10.7280  0.00  0.00     0.000 O
ATOM     20   O  Z9H D   1      15.959  49.854  12.9790  0.00  0.00     0.000 OA
ATOM     21   O  Z9H D   1      14.415  49.282  11.3650  0.00  0.00     0.000 OA
ENDBRANCH 5 16
BRANCH 1 22
ATOM     22  O4  GU1 D   2      18.479  45.843   7.8090  0.00  0.00     0.000 O
BRANCH 22 26
ATOM     23  C1  GU1 D   2      16.555  42.235   8.3110  0.00  0.00     0.000 C
ATOM     24  C2  GU1 D   2      15.877  43.193   7.3430  0.00  0.00     0.000 C
ATOM     25  C3  GU1 D   2      16.842  44.276   6.9570  0.00  0.00     0.000 C
ATOM     26  C4  GU1 D   2      17.428  44.947   8.1900  0.00  0.00     0.000 C
ATOM     27  C5  GU1 D   2      17.991  43.890   9.1450  0.00  0.00     0.000 C
ATOM     28  O5  GU1 D   2      16.989  42.931   9.4730  0.00  0.00     0.000 O
ATOM     29   O  GU1 D   2      15.448  42.535   6.1570  0.00  0.00     0.000 O
ATOM     30   C  GU1 D   2      14.080  42.152   6.1740  0.00  0.00     0.000 C
ATOM     31   C  GU1 D   2      16.352  45.191   4.7850  0.00  0.00     0.000 C
ATOM     32   O  GU1 D   2      16.136  45.259   6.1930  0.00  0.00     0.000 O
BRANCH 27 33
ATOM     33   C  GU1 D   2      18.471  44.517  10.4320  0.00  0.00     0.000 C
ATOM     34   O  GU1 D   2      17.647  44.808  11.2750  0.00  0.00     0.000 OA
ATOM     35   O  GU1 D   2      19.661  44.720  10.6180  0.00  0.00     0.000 O
ENDBRANCH 27 33
BRANCH 23 36
ATOM     36  O4  GU6 D   3      15.774  41.253   9.0200  0.00  0.00     0.000 O
BRANCH 36 40
ATOM     37  C1  GU6 D   3      14.521  39.979  12.6940  0.00  0.00     0.000 C
ATOM     38  C2  GU6 D   3      13.842  41.258  12.2180  0.00  0.00     0.000 C
ATOM     39  C3  GU6 D   3      14.163  41.488  10.7650  0.00  0.00     0.000 C
ATOM     40  C4  GU6 D   3      15.189  40.638  10.1500  0.00  0.00     0.000 C
ATOM     41  C5  GU6 D   3      16.337  40.377  11.1790  0.00  0.00     0.000 C
ATOM     42  O5  GU6 D   3      15.923  40.121  12.5260  0.00  0.00     0.000 O
BRANCH 38 43
ATOM     43   O  GU6 D   3      12.442  41.173  12.3960  0.00  0.00     0.000 O
ATOM     44   S  GU6 D   3      11.954  41.611  13.7720  0.00  0.00     0.000 S
ATOM     45   O  GU6 D   3      12.134  40.490  14.7100  0.00  0.00     0.000 OA
ATOM     46   O  GU6 D   3      12.768  42.757  14.2160  0.00  0.00     0.000 O
ATOM     47   O  GU6 D   3      10.552  42.001  13.6710  0.00  0.00     0.000 OA
ENDBRANCH 38 43
BRANCH 39 48
ATOM     48   O  GU6 D   3      13.350  42.326   9.9660  0.00  0.00     0.000 O
ATOM     49   S  GU6 D   3      13.110  43.833  10.0540  0.00  0.00     0.000 S
ATOM     50   O  GU6 D   3      14.387  44.553  10.0010  0.00  0.00     0.000 OA
ATOM     51   O  GU6 D   3      12.294  44.110   8.8640  0.00  0.00     0.000 OA
ATOM     52   O  GU6 D   3      12.411  44.134  11.3230  0.00  0.00     0.000 O
ENDBRANCH 39 48
BRANCH 41 53
ATOM     53   C  GU6 D   3      17.824  40.342  10.9510  0.00  0.00     0.000 C
ATOM     54   O  GU6 D   3      17.875  39.150  10.2100  0.00  0.00     0.000 O
ATOM     55   S  GU6 D   3      19.224  38.552   9.7890  0.00  0.00     0.000 S
ATOM     56   O  GU6 D   3      19.914  38.137  11.0330  0.00  0.00     0.000 O
ATOM     57   O  GU6 D   3      18.972  37.391   8.9230  0.00  0.00     0.000 OA
ATOM     58   O  GU6 D   3      19.979  39.618   9.0920  0.00  0.00     0.000 OA
ENDBRANCH 41 53
BRANCH 37 59
ATOM     59  O4  Z9K D   4      14.170  38.646  12.2660  0.00  0.00     0.000 O
BRANCH 59 63
ATOM     60  C1  Z9K D   4      12.792  34.980  11.9310  0.00  0.00     0.000 C
ATOM     61  C2  Z9K D   4      11.485  35.767  12.2250  0.00  0.00     0.000 C
ATOM     62  C3  Z9K D   4      12.018  37.265  12.1760  0.00  0.00     0.000 C
ATOM     63  C4  Z9K D   4      13.359  37.628  12.9210  0.00  0.00     0.000 C
ATOM     64  C5  Z9K D   4      14.361  36.478  13.1050  0.00  0.00     0.000 C
ATOM     65  O5  Z9K D   4      14.134  35.661  11.9260  0.00  0.00     0.000 O
ATOM     66   O  Z9K D   4      11.059  38.226  12.6530  0.00  0.00     0.000 O
ATOM     67   C  Z9K D   4      10.135  38.668  11.6730  0.00  0.00     0.000 C
BRANCH 61 68
ATOM     68   O  Z9K D   4      10.651  35.610  11.1100  0.00  0.00     0.000 O
ATOM     69   O  Z9K D   4       9.288  35.794  13.2680  0.00  0.00     0.000 OA
ATOM     70   S  Z9K D   4       9.790  34.890  12.2770  0.00  0.00     0.000 S
ATOM     71   O  Z9K D   4      10.340  33.594  12.5310  0.00  0.00     0.000 OA
ATOM     72   O  Z9K D   4       8.907  34.821  11.1570  0.00  0.00     0.000 OA
ENDBRANCH 61 68
BRANCH 64 73
ATOM     73   C  Z9K D   4      15.781  37.023  13.3670  0.00  0.00     0.000 C
ATOM     74   O  Z9K D   4      16.666  37.007  12.4640  0.00  0.00     0.000 O
ATOM     75   O  Z9K D   4      16.108  37.507  14.4780  0.00  0.00     0.000 OA
ENDBRANCH 64 73
BRANCH 60 76
ATOM     76  O4  Z9L D   5      13.275  33.782  12.5610  0.00  0.00     0.000 O
BRANCH 76 80
ATOM     77  C1  Z9L D   5      14.940  30.207  11.9100  0.00  0.00     0.000 C
ATOM     78  C2  Z9L D   5      16.009  31.081  12.7260  0.00  0.00     0.000 C
ATOM     79  C3  Z9L D   5      15.162  32.386  13.3910  0.00  0.00     0.000 C
ATOM     80  C4  Z9L D   5      14.193  32.811  12.1280  0.00  0.00     0.000 C
ATOM     81  C5  Z9L D   5      13.286  31.910  11.1460  0.00  0.00     0.000 C
ATOM     82  O5  Z9L D   5      14.060  30.741  10.8390  0.00  0.00     0.000 O
ATOM     83   C  Z9L D   5      13.127  28.632  12.2690  0.00  0.00     0.000 C
ATOM     84   C  Z9L D   5      13.127  28.632  12.2690  0.00  0.00     0.000 C
BRANCH 78 85
ATOM     85   O  Z9L D   5      16.515  30.293  13.7550  0.00  0.00     0.000 O
ATOM     86   O  Z9L D   5      18.313  29.607  13.8420  0.00  0.00     0.000 OA
ATOM     87   S  Z9L D   5      17.825  30.518  12.8520  0.00  0.00     0.000 S
ATOM     88   O  Z9L D   5      18.508  31.760  13.1170  0.00  0.00     0.000 OA
ATOM     89   O  Z9L D   5      17.879  29.802  11.6240  0.00  0.00     0.000 OA
ENDBRANCH 78 85
BRANCH 79 90
ATOM     90   O  Z9L D   5      15.982  33.502  13.5320  0.00  0.00     0.000 O
ATOM     91   S  Z9L D   5      15.542  33.300  15.0500  0.00  0.00     0.000 S
ATOM     92   O  Z9L D   5      15.751  32.062  15.7530  0.00  0.00     0.000 OA
ATOM     93   O  Z9L D   5      14.395  34.128  15.3290  0.00  0.00     0.000 O
ATOM     94   O  Z9L D   5      16.703  34.104  15.2560  0.00  0.00     0.000 OA
ENDBRANCH 79 90
BRANCH 81 95
ATOM     95   C  Z9L D   5      12.494  32.695   9.8940  0.00  0.00     0.000 C
ATOM     96   S  Z9L D   5      11.331  32.448   8.2960  0.00  0.00     0.000 S
ATOM     97   O  Z9L D   5      12.510  31.646   8.9640  0.00  0.00     0.000 O
ATOM     98   O  Z9L D   5      11.917  33.611   7.6800  0.00  0.00     0.000 OA
ATOM     99   O  Z9L D   5      10.133  32.539   9.0600  0.00  0.00     0.000 OA
ATOM    100   O  Z9L D   5      11.405  31.351   7.3620  0.00  0.00     0.000 O
ENDBRANCH 81 95
ENDBRANCH 76 80
ENDBRANCH 60 76
ENDBRANCH 59 63
ENDBRANCH 37 59
ENDBRANCH 36 40
ENDBRANCH 23 36
ENDBRANCH 22 26
ENDBRANCH 1 22
TORSDOF 19
ENDMDL
MODEL 33
REMARK VINA RESULT:      -2.6     16.468     23.566
ROOT
ATOM      1  C1  Z9H D   1      22.410  45.422  15.5120  0.00  0.00     0.000 C
ATOM      2  C2  Z9H D   1      23.836  45.095  16.0180  0.00  0.00     0.000 C
ATOM      3  C3  Z9H D   1      23.502  43.779  16.7860  0.00  0.00     0.000 C
ATOM      4  C4  Z9H D   1      22.286  43.872  17.7970  0.00  0.00     0.000 C
ATOM      5  C5  Z9H D   1      20.896  44.523  17.4200  0.00  0.00     0.000 C
ATOM      6  O5  Z9H D   1      21.301  45.519  16.4480  0.00  0.00     0.000 O
ATOM      7   O  Z9H D   1      24.655  43.246  17.4420  0.00  0.00     0.000 O
ATOM      8   C  Z9H D   1      25.328  42.188  16.7400  0.00  0.00     0.000 C
ATOM      9   O  Z9H D   1      22.024  42.528  18.2140  0.00  0.00     0.000 O
ATOM     10   C  Z9H D   1      22.573  42.156  19.4820  0.00  0.00     0.000 C
ENDROOT
BRANCH 2 11
ATOM     11   O  Z9H D   1      24.476  44.679  14.8410  0.00  0.00     0.000 O
ATOM     12   O  Z9H D   1      25.895  45.613  14.0200  0.00  0.00     0.000 OA
ATOM     13   S  Z9H D   1      25.269  45.997  15.2400  0.00  0.00     0.000 S
ATOM     14   O  Z9H D   1      26.052  45.715  16.4090  0.00  0.00     0.000 OA
ATOM     15   O  Z9H D   1      24.467  47.183  15.0430  0.00  0.00     0.000 O
ENDBRANCH 2 11
BRANCH 5 16
ATOM     16   C  Z9H D   1      19.924  44.922  18.7220  0.00  0.00     0.000 C
ATOM     17   S  Z9H D   1      19.931  45.600  20.6150  0.00  0.00     0.000 S
ATOM     18   O  Z9H D   1      20.726  45.949  19.2540  0.00  0.00     0.000 O
ATOM     19   O  Z9H D   1      20.232  44.314  21.1750  0.00  0.00     0.000 O
ATOM     20   O  Z9H D   1      18.618  46.142  20.5690  0.00  0.00     0.000 OA
ATOM     21   O  Z9H D   1      20.809  46.619  21.1110  0.00  0.00     0.000 OA
ENDBRANCH 5 16
BRANCH 1 22
ATOM     22  O4  GU1 D   2      21.860  44.456  14.5450  0.00  0.00     0.000 O
BRANCH 22 26
ATOM     23  C1  GU1 D   2      19.531  44.058  11.1700  0.00  0.00     0.000 C
ATOM     24  C2  GU1 D   2      20.293  45.371  11.2710  0.00  0.00     0.000 C
ATOM     25  C3  GU1 D   2      21.371  45.243  12.3070  0.00  0.00     0.000 C
ATOM     26  C4  GU1 D   2      20.799  44.751  13.6290  0.00  0.00     0.000 C
ATOM     27  C5  GU1 D   2      19.966  43.486  13.4020  0.00  0.00     0.000 C
ATOM     28  O5  GU1 D   2      18.954  43.724  12.4270  0.00  0.00     0.000 O
ATOM     29   O  GU1 D   2      20.903  45.729  10.0370  0.00  0.00     0.000 O
ATOM     30   C  GU1 D   2      20.141  46.644   9.2620  0.00  0.00     0.000 C
ATOM     31   C  GU1 D   2      23.218  46.726  11.8810  0.00  0.00     0.000 C
ATOM     32   O  GU1 D   2      21.956  46.533  12.5140  0.00  0.00     0.000 O
BRANCH 27 33
ATOM     33   C  GU1 D   2      19.287  43.042  14.6750  0.00  0.00     0.000 C
ATOM     34   O  GU1 D   2      19.684  42.032  15.2200  0.00  0.00     0.000 OA
ATOM     35   O  GU1 D   2      18.364  43.689  15.1440  0.00  0.00     0.000 O
ENDBRANCH 27 33
BRANCH 23 36
ATOM     36  O4  GU6 D   3      18.297  43.996  10.4290  0.00  0.00     0.000 O
BRANCH 36 40
ATOM     37  C1  GU6 D   3      14.307  44.394   9.6430  0.00  0.00     0.000 C
ATOM     38  C2  GU6 D   3      15.149  44.067   8.4170  0.00  0.00     0.000 C
ATOM     39  C3  GU6 D   3      16.539  43.675   8.8480  0.00  0.00     0.000 C
ATOM     40  C4  GU6 D   3      16.899  43.882  10.2550  0.00  0.00     0.000 C
ATOM     41  C5  GU6 D   3      16.260  45.216  10.7670  0.00  0.00     0.000 C
ATOM     42  O5  GU6 D   3      14.918  45.471  10.3370  0.00  0.00     0.000 O
BRANCH 38 43
ATOM     43   O  GU6 D   3      14.560  43.016   7.6740  0.00  0.00     0.000 O
ATOM     44   S  GU6 D   3      13.948  43.449   6.3480  0.00  0.00     0.000 S
ATOM     45   O  GU6 D   3      12.610  44.006   6.6090  0.00  0.00     0.000 OA
ATOM     46   O  GU6 D   3      14.805  44.491   5.7530  0.00  0.00     0.000 O
ATOM     47   O  GU6 D   3      13.879  42.292   5.4620  0.00  0.00     0.000 OA
ENDBRANCH 38 43
BRANCH 39 48
ATOM     48   O  GU6 D   3      17.380  42.925   7.9930  0.00  0.00     0.000 O
ATOM     49   S  GU6 D   3      17.679  41.427   7.9790  0.00  0.00     0.000 S
ATOM     50   O  GU6 D   3      16.429  40.663   7.8780  0.00  0.00     0.000 OA
ATOM     51   O  GU6 D   3      18.500  41.262   6.7720  0.00  0.00     0.000 OA
ATOM     52   O  GU6 D   3      18.393  41.068   9.2240  0.00  0.00     0.000 O
ENDBRANCH 39 48
BRANCH 41 53
ATOM     53   C  GU6 D   3      16.855  46.267  11.6650  0.00  0.00     0.000 C
ATOM     54   O  GU6 D   3      16.278  45.836  12.8710  0.00  0.00     0.000 O
ATOM     55   S  GU6 D   3      16.467  46.649  14.1580  0.00  0.00     0.000 S
ATOM     56   O  GU6 D   3      15.765  47.938  13.9570  0.00  0.00     0.000 O
ATOM     57   O  GU6 D   3      15.873  45.902  15.2760  0.00  0.00     0.000 OA
ATOM     58   O  GU6 D   3      17.922  46.858  14.3360  0.00  0.00     0.000 OA
ENDBRANCH 41 53
BRANCH 37 59
ATOM     59  O4  Z9K D   4      13.876  43.435  10.6320  0.00  0.00     0.000 O
BRANCH 59 63
ATOM     60  C1  Z9K D   4      10.675  42.467  12.6970  0.00  0.00     0.000 C
ATOM     61  C2  Z9K D   4      10.633  44.018  12.7870  0.00  0.00     0.000 C
ATOM     62  C3  Z9K D   4      11.818  44.409  11.8010  0.00  0.00     0.000 C
ATOM     63  C4  Z9K D   4      13.188  43.634  11.9010  0.00  0.00     0.000 C
ATOM     64  C5  Z9K D   4      13.116  42.206  12.4630  0.00  0.00     0.000 C
ATOM     65  O5  Z9K D   4      11.811  41.751  12.0190  0.00  0.00     0.000 O
ATOM     66   O  Z9K D   4      12.176  45.801  11.8650  0.00  0.00     0.000 O
ATOM     67   C  Z9K D   4      11.392  46.646  11.0380  0.00  0.00     0.000 C
BRANCH 61 68
ATOM     68   O  Z9K D   4       9.449  44.434  12.1640  0.00  0.00     0.000 O
ATOM     69   O  Z9K D   4      10.077  45.991  14.0960  0.00  0.00     0.000 OA
ATOM     70   S  Z9K D   4       9.214  44.922  13.6910  0.00  0.00     0.000 S
ATOM     71   O  Z9K D   4       8.850  43.793  14.4900  0.00  0.00     0.000 OA
ATOM     72   O  Z9K D   4       8.056  45.426  13.0250  0.00  0.00     0.000 OA
ENDBRANCH 61 68
BRANCH 64 73
ATOM     73   C  Z9K D   4      14.363  41.393  12.0580  0.00  0.00     0.000 C
ATOM     74   O  Z9K D   4      14.309  40.524  11.1400  0.00  0.00     0.000 O
ATOM     75   O  Z9K D   4      15.475  41.566  12.6140  0.00  0.00     0.000 OA
ENDBRANCH 64 73
BRANCH 60 76
ATOM     76  O4  Z9L D   5      10.552  41.506  13.7590  0.00  0.00     0.000 O
BRANCH 76 80
ATOM     77  C1  Z9L D   5       8.875  38.036  14.8180  0.00  0.00     0.000 C
ATOM     78  C2  Z9L D   5      10.462  37.804  14.7980  0.00  0.00     0.000 C
ATOM     79  C3  Z9L D   5      11.177  39.337  14.8090  0.00  0.00     0.000 C
ATOM     80  C4  Z9L D   5      10.213  40.143  13.7430  0.00  0.00     0.000 C
ATOM     81  C5  Z9L D   5       8.607  40.201  13.6090  0.00  0.00     0.000 C
ATOM     82  O5  Z9L D   5       8.135  38.864  13.8310  0.00  0.00     0.000 O
ATOM     83   C  Z9L D   5       7.084  38.676  16.3260  0.00  0.00     0.000 C
ATOM     84   C  Z9L D   5       7.084  38.676  16.3260  0.00  0.00     0.000 C
BRANCH 78 85
ATOM     85   O  Z9L D   5      10.814  37.128  15.9620  0.00  0.00     0.000 O
ATOM     86   O  Z9L D   5      11.432  35.305  16.0390  0.00  0.00     0.000 OA
ATOM     87   S  Z9L D   5      11.189  36.043  14.8370  0.00  0.00     0.000 S
ATOM     88   O  Z9L D   5      12.491  36.241  14.2500  0.00  0.00     0.000 OA
ATOM     89   O  Z9L D   5      10.099  35.382  14.2050  0.00  0.00     0.000 OA
ENDBRANCH 78 85
BRANCH 79 90
ATOM     90   O  Z9L D   5      12.407  39.328  14.1580  0.00  0.00     0.000 O
ATOM     91   S  Z9L D   5      12.868  39.845  15.5920  0.00  0.00     0.000 S
ATOM     92   O  Z9L D   5      12.598  39.110  16.7990  0.00  0.00     0.000 OA
ATOM     93   O  Z9L D   5      12.899  41.286  15.5920  0.00  0.00     0.000 O
ATOM     94   O  Z9L D   5      14.130  39.397  15.0970  0.00  0.00     0.000 OA
ENDBRANCH 79 90
BRANCH 81 95
ATOM     95   C  Z9L D   5       7.974  41.069  12.3210  0.00  0.00     0.000 C
ATOM     96   S  Z9L D   5       7.176  40.929  10.5020  0.00  0.00     0.000 S
ATOM     97   O  Z9L D   5       8.300  40.166  11.2990  0.00  0.00     0.000 O
ATOM     98   O  Z9L D   5       7.715  42.220  10.1580  0.00  0.00     0.000 OA
ATOM     99   O  Z9L D   5       5.853  40.790  11.0100  0.00  0.00     0.000 OA
ATOM    100   O  Z9L D   5       7.566  39.986   9.4820  0.00  0.00     0.000 O
ENDBRANCH 81 95
ENDBRANCH 76 80
ENDBRANCH 60 76
ENDBRANCH 59 63
ENDBRANCH 37 59
ENDBRANCH 36 40
ENDBRANCH 23 36
ENDBRANCH 22 26
ENDBRANCH 1 22
TORSDOF 19
ENDMDL
MODEL 34
REMARK VINA RESULT:      -2.6     18.422     24.870
ROOT
ATOM      1  C1  Z9H D   1      25.206  44.967  17.5270  0.00  0.00     0.000 C
ATOM      2  C2  Z9H D   1      25.525  45.033  19.0400  0.00  0.00     0.000 C
ATOM      3  C3  Z9H D   1      24.566  46.203  19.4180  0.00  0.00     0.000 C
ATOM      4  C4  Z9H D   1      24.681  47.497  18.5090  0.00  0.00     0.000 C
ATOM      5  C5  Z9H D   1      24.706  47.444  16.9300  0.00  0.00     0.000 C
ATOM      6  O5  Z9H D   1      25.327  46.155  16.6960  0.00  0.00     0.000 O
ATOM      7   O  Z9H D   1      24.682  46.554  20.7980  0.00  0.00     0.000 O
ATOM      8   C  Z9H D   1      23.680  45.992  21.6630  0.00  0.00     0.000 C
ATOM      9   O  Z9H D   1      23.584  48.336  18.8860  0.00  0.00     0.000 O
ATOM     10   C  Z9H D   1      23.900  49.394  19.7950  0.00  0.00     0.000 C
ENDROOT
BRANCH 2 11
ATOM     11   O  Z9H D   1      24.896  43.875  19.5220  0.00  0.00     0.000 O
ATOM     12   O  Z9H D   1      25.812  42.403  20.2650  0.00  0.00     0.000 OA
ATOM     13   S  Z9H D   1      26.433  43.604  19.8170  0.00  0.00     0.000 S
ATOM     14   O  Z9H D   1      26.849  44.474  20.8790  0.00  0.00     0.000 OA
ATOM     15   O  Z9H D   1      27.176  43.363  18.6000  0.00  0.00     0.000 O
ENDBRANCH 2 11
BRANCH 5 16
ATOM     16   C  Z9H D   1      25.272  48.831  16.1830  0.00  0.00     0.000 C
ATOM     17   S  Z9H D   1      26.126  50.621  16.5040  0.00  0.00     0.000 S
ATOM     18   O  Z9H D   1      26.307  49.128  17.0890  0.00  0.00     0.000 O
ATOM     19   O  Z9H D   1      24.887  51.257  16.8490  0.00  0.00     0.000 O
ATOM     20   O  Z9H D   1      26.721  50.719  15.2170  0.00  0.00     0.000 OA
ATOM     21   O  Z9H D   1      27.148  50.873  17.4780  0.00  0.00     0.000 OA
ENDBRANCH 5 16
BRANCH 1 22
ATOM     22  O4  GU1 D   2      23.830  44.552  17.2020  0.00  0.00     0.000 O
BRANCH 22 26
ATOM     23  C1  GU1 D   2      21.503  42.363  14.6010  0.00  0.00     0.000 C
ATOM     24  C2  GU1 D   2      22.885  41.785  14.8650  0.00  0.00     0.000 C
ATOM     25  C3  GU1 D   2      23.471  42.434  16.0850  0.00  0.00     0.000 C
ATOM     26  C4  GU1 D   2      23.443  43.951  15.9610  0.00  0.00     0.000 C
ATOM     27  C5  GU1 D   2      22.032  44.420  15.5930  0.00  0.00     0.000 C
ATOM     28  O5  GU1 D   2      21.584  43.770  14.4070  0.00  0.00     0.000 O
ATOM     29   O  GU1 D   2      22.841  40.381  15.0860  0.00  0.00     0.000 O
ATOM     30   C  GU1 D   2      23.131  39.607  13.9300  0.00  0.00     0.000 C
ATOM     31   C  GU1 D   2      25.057  41.005  17.1960  0.00  0.00     0.000 C
ATOM     32   O  GU1 D   2      24.833  42.011  16.2120  0.00  0.00     0.000 O
BRANCH 27 33
ATOM     33   C  GU1 D   2      22.000  45.910  15.3460  0.00  0.00     0.000 C
ATOM     34   O  GU1 D   2      21.391  46.612  16.1270  0.00  0.00     0.000 OA
ATOM     35   O  GU1 D   2      22.577  46.392  14.3830  0.00  0.00     0.000 O
ENDBRANCH 27 33
BRANCH 23 36
ATOM     36  O4  GU6 D   3      20.832  42.089  13.3560  0.00  0.00     0.000 O
BRANCH 36 40
ATOM     37  C1  GU6 D   3      17.929  41.630  10.5170  0.00  0.00     0.000 C
ATOM     38  C2  GU6 D   3      17.464  41.315  11.9330  0.00  0.00     0.000 C
ATOM     39  C3  GU6 D   3      18.507  41.771  12.9200  0.00  0.00     0.000 C
ATOM     40  C4  GU6 D   3      19.806  42.199  12.3890  0.00  0.00     0.000 C
ATOM     41  C5  GU6 D   3      20.207  41.284  11.1850  0.00  0.00     0.000 C
ATOM     42  O5  GU6 D   3      19.150  40.947  10.2790  0.00  0.00     0.000 O
BRANCH 38 43
ATOM     43   O  GU6 D   3      16.231  41.953  12.2050  0.00  0.00     0.000 O
ATOM     44   S  GU6 D   3      15.003  41.127  11.8420  0.00  0.00     0.000 S
ATOM     45   O  GU6 D   3      14.751  41.273  10.3980  0.00  0.00     0.000 OA
ATOM     46   O  GU6 D   3      15.279  39.713  12.1520  0.00  0.00     0.000 O
ATOM     47   O  GU6 D   3      13.869  41.600  12.6300  0.00  0.00     0.000 OA
ENDBRANCH 38 43
BRANCH 39 48
ATOM     48   O  GU6 D   3      18.174  42.000  14.2750  0.00  0.00     0.000 O
ATOM     49   S  GU6 D   3      17.906  41.003  15.4020  0.00  0.00     0.000 S
ATOM     50   O  GU6 D   3      19.044  40.087  15.5470  0.00  0.00     0.000 OA
ATOM     51   O  GU6 D   3      17.764  41.865  16.5830  0.00  0.00     0.000 OA
ATOM     52   O  GU6 D   3      16.679  40.239  15.0850  0.00  0.00     0.000 O
ENDBRANCH 39 48
BRANCH 41 53
ATOM     53   C  GU6 D   3      21.555  40.716  10.8350  0.00  0.00     0.000 C
ATOM     54   O  GU6 D   3      22.079  41.849  10.1920  0.00  0.00     0.000 O
ATOM     55   S  GU6 D   3      23.451  41.793   9.5090  0.00  0.00     0.000 S
ATOM     56   O  GU6 D   3      23.322  40.859   8.3660  0.00  0.00     0.000 O
ATOM     57   O  GU6 D   3      23.798  43.143   9.0410  0.00  0.00     0.000 OA
ATOM     58   O  GU6 D   3      24.418  41.281  10.5070  0.00  0.00     0.000 OA
ENDBRANCH 41 53
BRANCH 37 59
ATOM     59  O4  Z9K D   4      18.065  42.957   9.9650  0.00  0.00     0.000 O
BRANCH 59 63
ATOM     60  C1  Z9K D   4      16.713  45.470   7.2620  0.00  0.00     0.000 C
ATOM     61  C2  Z9K D   4      16.606  44.121   6.4990  0.00  0.00     0.000 C
ATOM     62  C3  Z9K D   4      16.977  43.091   7.6530  0.00  0.00     0.000 C
ATOM     63  C4  Z9K D   4      18.214  43.393   8.5820  0.00  0.00     0.000 C
ATOM     64  C5  Z9K D   4      18.592  44.873   8.7430  0.00  0.00     0.000 C
ATOM     65  O5  Z9K D   4      17.310  45.546   8.6410  0.00  0.00     0.000 O
ATOM     66   O  Z9K D   4      17.193  41.752   7.1730  0.00  0.00     0.000 O
ATOM     67   C  Z9K D   4      16.013  40.976   7.0500  0.00  0.00     0.000 C
BRANCH 61 68
ATOM     68   O  Z9K D   4      15.250  43.917   6.2120  0.00  0.00     0.000 O
ATOM     69   O  Z9K D   4      16.743  42.887   4.4070  0.00  0.00     0.000 OA
ATOM     70   S  Z9K D   4      15.898  43.997   4.7300  0.00  0.00     0.000 S
ATOM     71   O  Z9K D   4      16.157  45.366   4.4070  0.00  0.00     0.000 OA
ATOM     72   O  Z9K D   4      14.531  43.694   4.4510  0.00  0.00     0.000 OA
ENDBRANCH 61 68
BRANCH 64 73
ATOM     73   C  Z9K D   4      19.444  45.088  10.0120  0.00  0.00     0.000 C
ATOM     74   O  Z9K D   4      20.664  44.755  10.0470  0.00  0.00     0.000 O
ATOM     75   O  Z9K D   4      18.964  45.603  11.0510  0.00  0.00     0.000 OA
ENDBRANCH 64 73
BRANCH 60 76
ATOM     76  O4  Z9L D   5      17.298  46.705   6.8160  0.00  0.00     0.000 O
BRANCH 76 80
ATOM     77  C1  Z9L D   5      16.835  50.675   6.7700  0.00  0.00     0.000 C
ATOM     78  C2  Z9L D   5      18.168  50.367   7.6070  0.00  0.00     0.000 C
ATOM     79  C3  Z9L D   5      18.612  48.776   7.2450  0.00  0.00     0.000 C
ATOM     80  C4  Z9L D   5      17.147  48.023   7.2780  0.00  0.00     0.000 C
ATOM     81  C5  Z9L D   5      15.732  48.442   6.6280  0.00  0.00     0.000 C
ATOM     82  O5  Z9L D   5      15.597  49.857   6.8320  0.00  0.00     0.000 O
ATOM     83   C  Z9L D   5      16.102  51.162   4.5070  0.00  0.00     0.000 C
ATOM     84   C  Z9L D   5      16.102  51.162   4.5070  0.00  0.00     0.000 C
BRANCH 78 85
ATOM     85   O  Z9L D   5      19.165  51.231   7.1640  0.00  0.00     0.000 O
ATOM     86   O  Z9L D   5      19.908  52.682   8.1900  0.00  0.00     0.000 OA
ATOM     87   S  Z9L D   5      18.975  51.716   8.6850  0.00  0.00     0.000 S
ATOM     88   O  Z9L D   5      19.719  50.933   9.6410  0.00  0.00     0.000 OA
ATOM     89   O  Z9L D   5      17.792  52.451   8.9720  0.00  0.00     0.000 OA
ENDBRANCH 78 85
BRANCH 79 90
ATOM     90   O  Z9L D   5      19.282  48.181   8.3110  0.00  0.00     0.000 O
ATOM     91   S  Z9L D   5      20.392  48.026   7.1790  0.00  0.00     0.000 S
ATOM     92   O  Z9L D   5      20.903  49.152   6.4430  0.00  0.00     0.000 OA
ATOM     93   O  Z9L D   5      20.264  46.731   6.5590  0.00  0.00     0.000 O
ATOM     94   O  Z9L D   5      21.219  47.863   8.3310  0.00  0.00     0.000 OA
ENDBRANCH 79 90
BRANCH 81 95
ATOM     95   C  Z9L D   5      14.414  47.458   6.9550  0.00  0.00     0.000 C
ATOM     96   S  Z9L D   5      12.807  47.222   8.1070  0.00  0.00     0.000 S
ATOM     97   O  Z9L D   5      14.268  47.773   8.3140  0.00  0.00     0.000 O
ATOM     98   O  Z9L D   5      12.917  45.791   7.9810  0.00  0.00     0.000 OA
ATOM     99   O  Z9L D   5      11.976  47.981   7.2350  0.00  0.00     0.000 OA
ATOM    100   O  Z9L D   5      12.721  47.550   9.5090  0.00  0.00     0.000 O
ENDBRANCH 81 95
ENDBRANCH 76 80
ENDBRANCH 60 76
ENDBRANCH 59 63
ENDBRANCH 37 59
ENDBRANCH 36 40
ENDBRANCH 23 36
ENDBRANCH 22 26
ENDBRANCH 1 22
TORSDOF 19
ENDMDL
MODEL 35
REMARK VINA RESULT:      -2.5     20.875     25.431
ROOT
ATOM      1  C1  Z9H D   1      11.983  53.689  17.8360  0.00  0.00     0.000 C
ATOM      2  C2  Z9H D   1      12.094  54.227  19.2830  0.00  0.00     0.000 C
ATOM      3  C3  Z9H D   1      11.525  52.981  20.0270  0.00  0.00     0.000 C
ATOM      4  C4  Z9H D   1      10.147  52.429  19.4720  0.00  0.00     0.000 C
ATOM      5  C5  Z9H D   1       9.869  52.186  17.9350  0.00  0.00     0.000 C
ATOM      6  O5  Z9H D   1      10.712  53.197  17.3280  0.00  0.00     0.000 O
ATOM      7   O  Z9H D   1      11.440  53.203  21.4360  0.00  0.00     0.000 O
ATOM      8   C  Z9H D   1      12.525  52.665  22.2110  0.00  0.00     0.000 C
ATOM      9   O  Z9H D   1       9.929  51.183  20.1430  0.00  0.00     0.000 O
ATOM     10   C  Z9H D   1       9.038  51.232  21.2620  0.00  0.00     0.000 C
ENDROOT
BRANCH 2 11
ATOM     11   O  Z9H D   1      13.479  54.185  19.5050  0.00  0.00     0.000 O
ATOM     12   O  Z9H D   1      14.558  55.711  19.7580  0.00  0.00     0.000 OA
ATOM     13   S  Z9H D   1      13.146  55.737  19.5790  0.00  0.00     0.000 S
ATOM     14   O  Z9H D   1      12.412  55.983  20.7880  0.00  0.00     0.000 OA
ATOM     15   O  Z9H D   1      12.811  56.274  18.2800  0.00  0.00     0.000 O
ENDBRANCH 2 11
BRANCH 5 16
ATOM     16   C  Z9H D   1       8.255  52.036  17.5220  0.00  0.00     0.000 C
ATOM     17   S  Z9H D   1       6.374  52.188  18.2150  0.00  0.00     0.000 S
ATOM     18   O  Z9H D   1       7.743  53.026  18.3810  0.00  0.00     0.000 O
ATOM     19   O  Z9H D   1       6.388  50.885  18.8160  0.00  0.00     0.000 O
ATOM     20   O  Z9H D   1       5.785  52.456  16.9500  0.00  0.00     0.000 OA
ATOM     21   O  Z9H D   1       5.922  53.195  19.1300  0.00  0.00     0.000 OA
ENDBRANCH 5 16
BRANCH 1 22
ATOM     22  O4  GU1 D   2      12.855  52.540  17.5350  0.00  0.00     0.000 O
BRANCH 22 26
ATOM     23  C1  GU1 D   2      15.222  50.783  14.6570  0.00  0.00     0.000 C
ATOM     24  C2  GU1 D   2      15.206  52.303  14.6300  0.00  0.00     0.000 C
ATOM     25  C3  GU1 D   2      14.642  52.818  15.9230  0.00  0.00     0.000 C
ATOM     26  C4  GU1 D   2      13.289  52.184  16.2170  0.00  0.00     0.000 C
ATOM     27  C5  GU1 D   2      13.391  50.659  16.1160  0.00  0.00     0.000 C
ATOM     28  O5  GU1 D   2      13.905  50.277  14.8440  0.00  0.00     0.000 O
ATOM     29   O  GU1 D   2      16.510  52.847  14.4670  0.00  0.00     0.000 O
ATOM     30   C  GU1 D   2      16.828  53.184  13.1250  0.00  0.00     0.000 C
ATOM     31   C  GU1 D   2      15.468  55.013  16.4620  0.00  0.00     0.000 C
ATOM     32   O  GU1 D   2      14.469  54.234  15.8090  0.00  0.00     0.000 O
BRANCH 27 33
ATOM     33   C  GU1 D   2      12.039  50.009  16.2840  0.00  0.00     0.000 C
ATOM     34   O  GU1 D   2      11.212  50.161  15.4080  0.00  0.00     0.000 OA
ATOM     35   O  GU1 D   2      11.788  49.344  17.2770  0.00  0.00     0.000 O
ENDBRANCH 27 33
BRANCH 23 36
ATOM     36  O4  GU6 D   3      15.486  50.043  13.4490  0.00  0.00     0.000 O
BRANCH 36 40
ATOM     37  C1  GU6 D   3      15.912  47.217  10.5290  0.00  0.00     0.000 C
ATOM     38  C2  GU6 D   3      17.066  47.258  11.5230  0.00  0.00     0.000 C
ATOM     39  C3  GU6 D   3      16.692  48.127  12.6950  0.00  0.00     0.000 C
ATOM     40  C4  GU6 D   3      15.463  48.921  12.5900  0.00  0.00     0.000 C
ATOM     41  C5  GU6 D   3      15.312  49.460  11.1290  0.00  0.00     0.000 C
ATOM     42  O5  GU6 D   3      15.649  48.539  10.0860  0.00  0.00     0.000 O
BRANCH 38 43
ATOM     43   O  GU6 D   3      17.385  45.954  11.9700  0.00  0.00     0.000 O
ATOM     44   S  GU6 D   3      18.488  45.269  11.1750  0.00  0.00     0.000 S
ATOM     45   O  GU6 D   3      17.899  44.698   9.9520  0.00  0.00     0.000 OA
ATOM     46   O  GU6 D   3      19.499  46.277  10.8060  0.00  0.00     0.000 O
ATOM     47   O  GU6 D   3      19.094  44.234  12.0060  0.00  0.00     0.000 OA
ENDBRANCH 38 43
BRANCH 39 48
ATOM     48   O  GU6 D   3      17.366  48.005  13.9330  0.00  0.00     0.000 O
ATOM     49   S  GU6 D   3      18.699  48.599  14.3860  0.00  0.00     0.000 S
ATOM     50   O  GU6 D   3      18.687  50.056  14.2180  0.00  0.00     0.000 OA
ATOM     51   O  GU6 D   3      18.763  48.228  15.8070  0.00  0.00     0.000 OA
ATOM     52   O  GU6 D   3      19.788  48.005  13.5790  0.00  0.00     0.000 O
ENDBRANCH 39 48
BRANCH 41 53
ATOM     53   C  GU6 D   3      14.847  50.813  10.6620  0.00  0.00     0.000 C
ATOM     54   O  GU6 D   3      13.652  50.403  10.0500  0.00  0.00     0.000 O
ATOM     55   S  GU6 D   3      12.788  51.409   9.2780  0.00  0.00     0.000 S
ATOM     56   O  GU6 D   3      13.576  51.831   8.0970  0.00  0.00     0.000 O
ATOM     57   O  GU6 D   3      11.547  50.738   8.8620  0.00  0.00     0.000 OA
ATOM     58   O  GU6 D   3      12.530  52.551  10.1820  0.00  0.00     0.000 OA
ENDBRANCH 41 53
BRANCH 37 59
ATOM     59  O4  Z9K D   4      14.638  46.582  10.7650  0.00  0.00     0.000 O
BRANCH 59 63
ATOM     60  C1  Z9K D   4      14.803  42.843   9.5650  0.00  0.00     0.000 C
ATOM     61  C2  Z9K D   4      14.552  43.580   8.2200  0.00  0.00     0.000 C
ATOM     62  C3  Z9K D   4      14.669  45.097   8.6810  0.00  0.00     0.000 C
ATOM     63  C4  Z9K D   4      13.938  45.558  10.0000  0.00  0.00     0.000 C
ATOM     64  C5  Z9K D   4      13.696  44.467  11.0540  0.00  0.00     0.000 C
ATOM     65  O5  Z9K D   4      14.836  43.585  10.8720  0.00  0.00     0.000 O
ATOM     66   O  Z9K D   4      14.242  46.032   7.6750  0.00  0.00     0.000 O
ATOM     67   C  Z9K D   4      15.245  46.383   6.7370  0.00  0.00     0.000 C
BRANCH 61 68
ATOM     68   O  Z9K D   4      15.661  43.330   7.4010  0.00  0.00     0.000 O
ATOM     69   O  Z9K D   4      13.518  43.547   6.0180  0.00  0.00     0.000 OA
ATOM     70   S  Z9K D   4      14.464  42.624   6.5690  0.00  0.00     0.000 S
ATOM     71   O  Z9K D   4      14.149  41.369   7.1800  0.00  0.00     0.000 OA
ATOM     72   O  Z9K D   4      15.582  42.460   5.6970  0.00  0.00     0.000 OA
ENDBRANCH 61 68
BRANCH 64 73
ATOM     73   C  Z9K D   4      13.455  45.091  12.4440  0.00  0.00     0.000 C
ATOM     74   O  Z9K D   4      12.347  45.628  12.7390  0.00  0.00     0.000 O
ATOM     75   O  Z9K D   4      14.340  45.085  13.3350  0.00  0.00     0.000 OA
ENDBRANCH 64 73
BRANCH 60 76
ATOM     76  O4  Z9L D   5      14.115  41.699  10.1000  0.00  0.00     0.000 O
BRANCH 76 80
ATOM     77  C1  Z9L D   5      14.612  38.181  11.9290  0.00  0.00     0.000 C
ATOM     78  C2  Z9L D   5      13.807  39.128  12.9430  0.00  0.00     0.000 C
ATOM     79  C3  Z9L D   5      13.203  40.416  12.0280  0.00  0.00     0.000 C
ATOM     80  C4  Z9L D   5      14.497  40.756  11.0680  0.00  0.00     0.000 C
ATOM     81  C5  Z9L D   5      15.465  39.783  10.2200  0.00  0.00     0.000 C
ATOM     82  O5  Z9L D   5      15.717  38.640  11.0500  0.00  0.00     0.000 O
ATOM     83   C  Z9L D   5      14.233  36.541  10.1790  0.00  0.00     0.000 C
ATOM     84   C  Z9L D   5      14.233  36.541  10.1790  0.00  0.00     0.000 C
BRANCH 78 85
ATOM     85   O  Z9L D   5      12.741  38.398  13.4620  0.00  0.00     0.000 O
ATOM     86   O  Z9L D   5      12.598  37.793  15.2850  0.00  0.00     0.000 OA
ATOM     87   S  Z9L D   5      13.627  38.649  14.7790  0.00  0.00     0.000 S
ATOM     88   O  Z9L D   5      13.392  39.927  15.4030  0.00  0.00     0.000 OA
ATOM     89   O  Z9L D   5      14.828  37.894  14.8880  0.00  0.00     0.000 OA
ENDBRANCH 78 85
BRANCH 79 90
ATOM     90   O  Z9L D   5      13.084  41.571  12.7960  0.00  0.00     0.000 O
ATOM     91   S  Z9L D   5      11.568  41.398  12.3380  0.00  0.00     0.000 S
ATOM     92   O  Z9L D   5      10.821  40.193  12.5870  0.00  0.00     0.000 OA
ATOM     93   O  Z9L D   5      11.336  42.183  11.1510  0.00  0.00     0.000 O
ATOM     94   O  Z9L D   5      11.369  42.258  13.4590  0.00  0.00     0.000 OA
ENDBRANCH 79 90
BRANCH 81 95
ATOM     95   C  Z9L D   5      16.758  40.492   9.4210  0.00  0.00     0.000 C
ATOM     96   S  Z9L D   5      18.331  40.148   8.2480  0.00  0.00     0.000 S
ATOM     97   O  Z9L D   5      17.622  39.388   9.4310  0.00  0.00     0.000 O
ATOM     98   O  Z9L D   5      19.020  41.271   8.8300  0.00  0.00     0.000 OA
ATOM     99   O  Z9L D   5      17.566  40.286   7.0540  0.00  0.00     0.000 OA
ATOM    100   O  Z9L D   5      19.196  38.997   8.3160  0.00  0.00     0.000 O
ENDBRANCH 81 95
ENDBRANCH 76 80
ENDBRANCH 60 76
ENDBRANCH 59 63
ENDBRANCH 37 59
ENDBRANCH 36 40
ENDBRANCH 23 36
ENDBRANCH 22 26
ENDBRANCH 1 22
TORSDOF 19
ENDMDL
MODEL 36
REMARK VINA RESULT:      -2.4     15.752     24.788
ROOT
ATOM      1  C1  Z9H D   1      34.523  42.562  16.0130  0.00  0.00     0.000 C
ATOM      2  C2  Z9H D   1      35.682  43.586  15.9570  0.00  0.00     0.000 C
ATOM      3  C3  Z9H D   1      36.753  42.674  15.2850  0.00  0.00     0.000 C
ATOM      4  C4  Z9H D   1      36.959  41.256  15.9620  0.00  0.00     0.000 C
ATOM      5  C5  Z9H D   1      35.759  40.305  16.3580  0.00  0.00     0.000 C
ATOM      6  O5  Z9H D   1      34.714  41.268  16.6480  0.00  0.00     0.000 O
ATOM      7   O  Z9H D   1      38.007  43.346  15.1490  0.00  0.00     0.000 O
ATOM      8   C  Z9H D   1      38.264  43.913  13.8530  0.00  0.00     0.000 C
ATOM      9   O  Z9H D   1      37.805  40.520  15.0720  0.00  0.00     0.000 O
ATOM     10   C  Z9H D   1      39.190  40.481  15.4280  0.00  0.00     0.000 C
ENDROOT
BRANCH 2 11
ATOM     11   O  Z9H D   1      35.254  44.457  14.9430  0.00  0.00     0.000 O
ATOM     12   O  Z9H D   1      34.803  46.267  15.2200  0.00  0.00     0.000 OA
ATOM     13   S  Z9H D   1      35.284  45.386  16.2310  0.00  0.00     0.000 S
ATOM     14   O  Z9H D   1      36.654  45.612  16.5930  0.00  0.00     0.000 OA
ATOM     15   O  Z9H D   1      34.224  45.052  17.1540  0.00  0.00     0.000 O
ENDBRANCH 2 11
BRANCH 5 16
ATOM     16   C  Z9H D   1      36.147  39.089  17.4400  0.00  0.00     0.000 C
ATOM     17   S  Z9H D   1      37.593  38.373  18.6380  0.00  0.00     0.000 S
ATOM     18   O  Z9H D   1      37.013  39.832  18.2630  0.00  0.00     0.000 O
ATOM     19   O  Z9H D   1      38.279  37.704  17.5700  0.00  0.00     0.000 O
ATOM     20   O  Z9H D   1      36.711  37.710  19.5330  0.00  0.00     0.000 OA
ATOM     21   O  Z9H D   1      38.480  39.185  19.4190  0.00  0.00     0.000 OA
ENDBRANCH 5 16
BRANCH 1 22
ATOM     22  O4  GU1 D   2      34.005  42.142  14.6990  0.00  0.00     0.000 O
BRANCH 22 26
ATOM     23  C1  GU1 D   2      30.606  41.154  12.5930  0.00  0.00     0.000 C
ATOM     24  C2  GU1 D   2      30.403  42.198  13.6810  0.00  0.00     0.000 C
ATOM     25  C3  GU1 D   2      31.737  42.744  14.1000  0.00  0.00     0.000 C
ATOM     26  C4  GU1 D   2      32.689  41.620  14.4840  0.00  0.00     0.000 C
ATOM     27  C5  GU1 D   2      32.741  40.573  13.3670  0.00  0.00     0.000 C
ATOM     28  O5  GU1 D   2      31.431  40.097  13.0680  0.00  0.00     0.000 O
ATOM     29   O  GU1 D   2      29.599  43.283  13.2340  0.00  0.00     0.000 O
ATOM     30   C  GU1 D   2      28.229  43.168  13.5900  0.00  0.00     0.000 C
ATOM     31   C  GU1 D   2      31.567  44.985  14.9620  0.00  0.00     0.000 C
ATOM     32   O  GU1 D   2      31.542  43.587  15.2400  0.00  0.00     0.000 O
BRANCH 27 33
ATOM     33   C  GU1 D   2      33.584  39.386  13.7690  0.00  0.00     0.000 C
ATOM     34   O  GU1 D   2      34.643  39.212  13.2030  0.00  0.00     0.000 OA
ATOM     35   O  GU1 D   2      33.206  38.625  14.6450  0.00  0.00     0.000 O
ENDBRANCH 27 33
BRANCH 23 36
ATOM     36  O4  GU6 D   3      29.510  40.307  12.1930  0.00  0.00     0.000 O
BRANCH 36 40
ATOM     37  C1  GU6 D   3      26.483  38.492  10.1350  0.00  0.00     0.000 C
ATOM     38  C2  GU6 D   3      26.293  38.488  11.6460  0.00  0.00     0.000 C
ATOM     39  C3  GU6 D   3      27.303  39.404  12.2850  0.00  0.00     0.000 C
ATOM     40  C4  GU6 D   3      28.377  39.931  11.4360  0.00  0.00     0.000 C
ATOM     41  C5  GU6 D   3      28.840  38.826  10.4310  0.00  0.00     0.000 C
ATOM     42  O5  GU6 D   3      27.797  38.040   9.8430  0.00  0.00     0.000 O
BRANCH 38 43
ATOM     43   O  GU6 D   3      24.983  38.902  11.9840  0.00  0.00     0.000 O
ATOM     44   S  GU6 D   3      23.991  37.762  12.1740  0.00  0.00     0.000 S
ATOM     45   O  GU6 D   3      23.507  37.337  10.8490  0.00  0.00     0.000 OA
ATOM     46   O  GU6 D   3      24.686  36.638  12.8260  0.00  0.00     0.000 O
ATOM     47   O  GU6 D   3      22.894  38.229  13.0160  0.00  0.00     0.000 OA
ENDBRANCH 38 43
BRANCH 39 48
ATOM     48   O  GU6 D   3      27.095  39.921  13.5850  0.00  0.00     0.000 O
ATOM     49   S  GU6 D   3      27.393  39.298  14.9480  0.00  0.00     0.000 S
ATOM     50   O  GU6 D   3      28.806  38.907  15.0280  0.00  0.00     0.000 OA
ATOM     51   O  GU6 D   3      27.090  40.387  15.8860  0.00  0.00     0.000 OA
ATOM     52   O  GU6 D   3      26.529  38.111  15.1320  0.00  0.00     0.000 O
ENDBRANCH 39 48
BRANCH 41 53
ATOM     53   C  GU6 D   3      30.233  38.478   9.9810  0.00  0.00     0.000 C
ATOM     54   O  GU6 D   3      30.032  38.636   8.6000  0.00  0.00     0.000 O
ATOM     55   S  GU6 D   3      31.147  38.285   7.6060  0.00  0.00     0.000 S
ATOM     56   O  GU6 D   3      31.353  36.821   7.6930  0.00  0.00     0.000 O
ATOM     57   O  GU6 D   3      30.710  38.670   6.2560  0.00  0.00     0.000 OA
ATOM     58   O  GU6 D   3      32.361  39.019   8.0310  0.00  0.00     0.000 OA
ENDBRANCH 41 53
BRANCH 37 59
ATOM     59  O4  Z9K D   4      26.213  39.614   9.2690  0.00  0.00     0.000 O
BRANCH 59 63
ATOM     60  C1  Z9K D   4      22.584  39.194   7.8190  0.00  0.00     0.000 C
ATOM     61  C2  Z9K D   4      23.401  38.297   6.8490  0.00  0.00     0.000 C
ATOM     62  C3  Z9K D   4      24.830  38.322   7.5460  0.00  0.00     0.000 C
ATOM     63  C4  Z9K D   4      25.413  39.697   8.0530  0.00  0.00     0.000 C
ATOM     64  C5  Z9K D   4      24.380  40.776   8.4120  0.00  0.00     0.000 C
ATOM     65  O5  Z9K D   4      23.256  39.997   8.8990  0.00  0.00     0.000 O
ATOM     66   O  Z9K D   4      25.872  37.758   6.7300  0.00  0.00     0.000 O
ATOM     67   C  Z9K D   4      25.999  36.349   6.8330  0.00  0.00     0.000 C
BRANCH 61 68
ATOM     68   O  Z9K D   4      22.917  36.990   6.9910  0.00  0.00     0.000 O
ATOM     69   O  Z9K D   4      23.794  37.399   4.6220  0.00  0.00     0.000 OA
ATOM     70   S  Z9K D   4      22.616  37.290   5.4280  0.00  0.00     0.000 S
ATOM     71   O  Z9K D   4      21.455  38.121   5.3290  0.00  0.00     0.000 OA
ATOM     72   O  Z9K D   4      22.215  35.927   5.5620  0.00  0.00     0.000 OA
ENDBRANCH 61 68
BRANCH 64 73
ATOM     73   C  Z9K D   4      25.001  41.843   9.3390  0.00  0.00     0.000 C
ATOM     74   O  Z9K D   4      24.682  41.915  10.5610  0.00  0.00     0.000 O
ATOM     75   O  Z9K D   4      25.846  42.672   8.9200  0.00  0.00     0.000 OA
ENDBRANCH 64 73
BRANCH 60 76
ATOM     76  O4  Z9L D   5      21.625  40.216   7.4980  0.00  0.00     0.000 O
BRANCH 76 80
ATOM     77  C1  Z9L D   5      17.867  41.448   8.0780  0.00  0.00     0.000 C
ATOM     78  C2  Z9L D   5      18.829  42.546   8.7420  0.00  0.00     0.000 C
ATOM     79  C3  Z9L D   5      20.376  42.281   8.1120  0.00  0.00     0.000 C
ATOM     80  C4  Z9L D   5      20.459  40.636   8.1600  0.00  0.00     0.000 C
ATOM     81  C5  Z9L D   5      19.396  39.513   7.7050  0.00  0.00     0.000 C
ATOM     82  O5  Z9L D   5      18.107  39.983   8.1260  0.00  0.00     0.000 O
ATOM     83   C  Z9L D   5      16.746  40.944   5.9850  0.00  0.00     0.000 C
ATOM     84   C  Z9L D   5      16.746  40.944   5.9850  0.00  0.00     0.000 C
BRANCH 78 85
ATOM     85   O  Z9L D   5      18.385  43.804   8.3470  0.00  0.00     0.000 O
ATOM     86   O  Z9L D   5      17.541  45.093   9.5020  0.00  0.00     0.000 OA
ATOM     87   S  Z9L D   5      18.111  43.852   9.9290  0.00  0.00     0.000 S
ATOM     88   O  Z9L D   5      19.267  44.220  10.7090  0.00  0.00     0.000 OA
ATOM     89   O  Z9L D   5      17.014  43.080  10.4050  0.00  0.00     0.000 OA
ENDBRANCH 78 85
BRANCH 79 90
ATOM     90   O  Z9L D   5      21.364  42.660   9.0160  0.00  0.00     0.000 O
ATOM     91   S  Z9L D   5      21.705  43.651   7.8170  0.00  0.00     0.000 S
ATOM     92   O  Z9L D   5      20.734  44.559   7.2680  0.00  0.00     0.000 OA
ATOM     93   O  Z9L D   5      22.721  43.058   6.9830  0.00  0.00     0.000 O
ATOM     94   O  Z9L D   5      22.376  44.337   8.8740  0.00  0.00     0.000 OA
ENDBRANCH 79 90
BRANCH 81 95
ATOM     95   C  Z9L D   5      19.797  37.910   7.9960  0.00  0.00     0.000 C
ATOM     96   S  Z9L D   5      19.077  36.112   8.4600  0.00  0.00     0.000 S
ATOM     97   O  Z9L D   5      18.736  37.597   8.8580  0.00  0.00     0.000 O
ATOM     98   O  Z9L D   5      20.314  35.780   9.1200  0.00  0.00     0.000 OA
ATOM     99   O  Z9L D   5      18.848  35.768   7.0970  0.00  0.00     0.000 OA
ATOM    100   O  Z9L D   5      17.990  35.850   9.3710  0.00  0.00     0.000 O
ENDBRANCH 81 95
ENDBRANCH 76 80
ENDBRANCH 60 76
ENDBRANCH 59 63
ENDBRANCH 37 59
ENDBRANCH 36 40
ENDBRANCH 23 36
ENDBRANCH 22 26
ENDBRANCH 1 22
TORSDOF 19
ENDMDL
MODEL 37
REMARK VINA RESULT:      -2.4     11.532     20.773
ROOT
ATOM      1  C1  Z9H D   1      30.476  39.172  15.4740  0.00  0.00     0.000 C
ATOM      2  C2  Z9H D   1      30.834  40.359  16.3990  0.00  0.00     0.000 C
ATOM      3  C3  Z9H D   1      32.273  40.633  15.8630  0.00  0.00     0.000 C
ATOM      4  C4  Z9H D   1      33.217  39.364  15.7730  0.00  0.00     0.000 C
ATOM      5  C5  Z9H D   1      32.763  37.992  15.1310  0.00  0.00     0.000 C
ATOM      6  O5  Z9H D   1      31.340  38.004  15.4070  0.00  0.00     0.000 O
ATOM      7   O  Z9H D   1      32.915  41.680  16.5920  0.00  0.00     0.000 O
ATOM      8   C  Z9H D   1      32.876  42.977  15.9720  0.00  0.00     0.000 C
ATOM      9   O  Z9H D   1      34.384  39.796  15.0650  0.00  0.00     0.000 O
ATOM     10   C  Z9H D   1      35.514  40.123  15.8790  0.00  0.00     0.000 C
ENDROOT
BRANCH 2 11
ATOM     11   O  Z9H D   1      30.044  41.391  15.8690  0.00  0.00     0.000 O
ATOM     12   O  Z9H D   1      28.619  42.214  16.7910  0.00  0.00     0.000 OA
ATOM     13   S  Z9H D   1      29.458  41.200  17.3340  0.00  0.00     0.000 S
ATOM     14   O  Z9H D   1      30.426  41.690  18.2740  0.00  0.00     0.000 OA
ATOM     15   O  Z9H D   1      28.731  39.958  17.4600  0.00  0.00     0.000 O
ENDBRANCH 2 11
BRANCH 5 16
ATOM     16   C  Z9H D   1      33.716  36.675  15.5270  0.00  0.00     0.000 C
ATOM     17   S  Z9H D   1      33.786  34.666  15.5630  0.00  0.00     0.000 S
ATOM     18   O  Z9H D   1      33.240  35.790  14.5410  0.00  0.00     0.000 O
ATOM     19   O  Z9H D   1      33.059  34.568  16.7960  0.00  0.00     0.000 O
ATOM     20   O  Z9H D   1      35.203  34.579  15.4850  0.00  0.00     0.000 OA
ATOM     21   O  Z9H D   1      33.239  33.814  14.5480  0.00  0.00     0.000 OA
ENDBRANCH 5 16
BRANCH 1 22
ATOM     22  O4  GU1 D   2      30.373  39.511  14.0430  0.00  0.00     0.000 O
BRANCH 22 26
ATOM     23  C1  GU1 D   2      28.277  38.767  10.5760  0.00  0.00     0.000 C
ATOM     24  C2  GU1 D   2      27.466  38.630  11.8560  0.00  0.00     0.000 C
ATOM     25  C3  GU1 D   2      28.206  39.284  12.9860  0.00  0.00     0.000 C
ATOM     26  C4  GU1 D   2      29.627  38.748  13.0880  0.00  0.00     0.000 C
ATOM     27  C5  GU1 D   2      30.319  38.836  11.7240  0.00  0.00     0.000 C
ATOM     28  O5  GU1 D   2      29.553  38.159  10.7320  0.00  0.00     0.000 O
ATOM     29   O  GU1 D   2      26.189  39.247  11.7450  0.00  0.00     0.000 O
ATOM     30   C  GU1 D   2      25.142  38.347  11.4110  0.00  0.00     0.000 C
ATOM     31   C  GU1 D   2      26.720  40.058  14.7140  0.00  0.00     0.000 C
ATOM     32   O  GU1 D   2      27.518  38.991  14.2070  0.00  0.00     0.000 O
BRANCH 27 33
ATOM     33   C  GU1 D   2      31.689  38.200  11.7650  0.00  0.00     0.000 C
ATOM     34   O  GU1 D   2      32.663  38.925  11.7380  0.00  0.00     0.000 OA
ATOM     35   O  GU1 D   2      31.809  36.987  11.8280  0.00  0.00     0.000 O
ENDBRANCH 27 33
BRANCH 23 36
ATOM     36  O4  GU6 D   3      27.905  38.016   9.4040  0.00  0.00     0.000 O
BRANCH 36 40
ATOM     37  C1  GU6 D   3      25.799  35.907   6.6090  0.00  0.00     0.000 C
ATOM     38  C2  GU6 D   3      27.308  35.715   6.5210  0.00  0.00     0.000 C
ATOM     39  C3  GU6 D   3      27.964  36.304   7.7420  0.00  0.00     0.000 C
ATOM     40  C4  GU6 D   3      27.132  37.113   8.6390  0.00  0.00     0.000 C
ATOM     41  C5  GU6 D   3      26.129  37.966   7.7940  0.00  0.00     0.000 C
ATOM     42  O5  GU6 D   3      25.524  37.297   6.6820  0.00  0.00     0.000 O
BRANCH 38 43
ATOM     43   O  GU6 D   3      27.630  34.341   6.4150  0.00  0.00     0.000 O
ATOM     44   S  GU6 D   3      27.814  33.846   4.9870  0.00  0.00     0.000 S
ATOM     45   O  GU6 D   3      26.487  33.572   4.4110  0.00  0.00     0.000 OA
ATOM     46   O  GU6 D   3      28.479  34.904   4.2050  0.00  0.00     0.000 O
ATOM     47   O  GU6 D   3      28.643  32.645   5.0090  0.00  0.00     0.000 OA
ENDBRANCH 38 43
BRANCH 39 48
ATOM     48   O  GU6 D   3      29.263  35.903   8.1340  0.00  0.00     0.000 O
ATOM     49   S  GU6 D   3      30.627  36.354   7.6120  0.00  0.00     0.000 S
ATOM     50   O  GU6 D   3      30.747  37.814   7.7050  0.00  0.00     0.000 OA
ATOM     51   O  GU6 D   3      31.569  35.685   8.5200  0.00  0.00     0.000 OA
ATOM     52   O  GU6 D   3      30.769  35.923   6.2030  0.00  0.00     0.000 O
ENDBRANCH 39 48
BRANCH 41 53
ATOM     53   C  GU6 D   3      25.696  39.393   7.9950  0.00  0.00     0.000 C
ATOM     54   O  GU6 D   3      25.395  39.691   6.6560  0.00  0.00     0.000 O
ATOM     55   S  GU6 D   3      24.992  41.114   6.2470  0.00  0.00     0.000 S
ATOM     56   O  GU6 D   3      26.179  41.973   6.4640  0.00  0.00     0.000 O
ATOM     57   O  GU6 D   3      24.612  41.103   4.8270  0.00  0.00     0.000 OA
ATOM     58   O  GU6 D   3      23.871  41.522   7.1230  0.00  0.00     0.000 OA
ENDBRANCH 41 53
BRANCH 37 59
ATOM     59  O4  Z9K D   4      24.934  35.247   7.5570  0.00  0.00     0.000 O
BRANCH 59 63
ATOM     60  C1  Z9K D   4      21.219  34.022   7.9350  0.00  0.00     0.000 C
ATOM     61  C2  Z9K D   4      21.013  35.401   7.2490  0.00  0.00     0.000 C
ATOM     62  C3  Z9K D   4      22.517  35.808   6.9330  0.00  0.00     0.000 C
ATOM     63  C4  Z9K D   4      23.614  35.621   8.0490  0.00  0.00     0.000 C
ATOM     64  C5  Z9K D   4      23.333  34.534   9.0970  0.00  0.00     0.000 C
ATOM     65  O5  Z9K D   4      22.586  33.544   8.3410  0.00  0.00     0.000 O
ATOM     66   O  Z9K D   4      22.658  37.173   6.5000  0.00  0.00     0.000 O
ATOM     67   C  Z9K D   4      22.457  37.371   5.1100  0.00  0.00     0.000 C
BRANCH 61 68
ATOM     68   O  Z9K D   4      20.402  35.158   6.0120  0.00  0.00     0.000 O
ATOM     69   O  Z9K D   4      19.619  37.381   7.0100  0.00  0.00     0.000 OA
ATOM     70   S  Z9K D   4      19.263  36.012   6.7850  0.00  0.00     0.000 S
ATOM     71   O  Z9K D   4      18.594  35.158   7.7180  0.00  0.00     0.000 OA
ATOM     72   O  Z9K D   4      18.691  35.840   5.4890  0.00  0.00     0.000 OA
ENDBRANCH 61 68
BRANCH 64 73
ATOM     73   C  Z9K D   4      24.635  34.100   9.8020  0.00  0.00     0.000 C
ATOM     74   O  Z9K D   4      25.159  32.971   9.5760  0.00  0.00     0.000 O
ATOM     75   O  Z9K D   4      25.227  34.850  10.6170  0.00  0.00     0.000 OA
ENDBRANCH 64 73
BRANCH 60 76
ATOM     76  O4  Z9L D   5      20.563  33.497   9.1020  0.00  0.00     0.000 O
BRANCH 76 80
ATOM     77  C1  Z9L D   5      19.464  30.065  10.8310  0.00  0.00     0.000 C
ATOM     78  C2  Z9L D   5      20.388  30.846  11.8830  0.00  0.00     0.000 C
ATOM     79  C3  Z9L D   5      20.469  32.453  11.3600  0.00  0.00     0.000 C
ATOM     80  C4  Z9L D   5      20.658  32.248   9.7370  0.00  0.00     0.000 C
ATOM     81  C5  Z9L D   5      19.883  31.288   8.6980  0.00  0.00     0.000 C
ATOM     82  O5  Z9L D   5      19.705  30.030   9.3660  0.00  0.00     0.000 O
ATOM     83   C  Z9L D   5      17.134  29.802  10.2020  0.00  0.00     0.000 C
ATOM     84   C  Z9L D   5      17.134  29.802  10.2020  0.00  0.00     0.000 C
BRANCH 78 85
ATOM     85   O  Z9L D   5      19.761  30.802  13.1250  0.00  0.00     0.000 O
ATOM     86   O  Z9L D   5      20.390  29.802  14.6470  0.00  0.00     0.000 OA
ATOM     87   S  Z9L D   5      21.095  29.952  13.4100  0.00  0.00     0.000 S
ATOM     88   O  Z9L D   5      22.244  30.762  13.7310  0.00  0.00     0.000 OA
ATOM     89   O  Z9L D   5      21.146  28.646  12.8480  0.00  0.00     0.000 OA
ENDBRANCH 78 85
BRANCH 79 90
ATOM     90   O  Z9L D   5      21.671  33.047  11.7320  0.00  0.00     0.000 O
ATOM     91   S  Z9L D   5      20.650  34.083  12.3810  0.00  0.00     0.000 S
ATOM     92   O  Z9L D   5      19.635  33.679  13.3180  0.00  0.00     0.000 OA
ATOM     93   O  Z9L D   5      20.419  35.167  11.4590  0.00  0.00     0.000 O
ATOM     94   O  Z9L D   5      21.815  34.413  13.1360  0.00  0.00     0.000 OA
ENDBRANCH 79 90
BRANCH 81 95
ATOM     95   C  Z9L D   5      20.421  31.281   7.1090  0.00  0.00     0.000 C
ATOM     96   S  Z9L D   5      21.271  30.177   5.6850  0.00  0.00     0.000 S
ATOM     97   O  Z9L D   5      21.423  30.309   7.2470  0.00  0.00     0.000 O
ATOM     98   O  Z9L D   5      21.859  31.360   5.1100  0.00  0.00     0.000 OA
ATOM     99   O  Z9L D   5      20.021  29.673   5.2250  0.00  0.00     0.000 OA
ATOM    100   O  Z9L D   5      22.314  29.202   5.8860  0.00  0.00     0.000 O
ENDBRANCH 81 95
ENDBRANCH 76 80
ENDBRANCH 60 76
ENDBRANCH 59 63
ENDBRANCH 37 59
ENDBRANCH 36 40
ENDBRANCH 23 36
ENDBRANCH 22 26
ENDBRANCH 1 22
TORSDOF 19
ENDMDL
MODEL 38
REMARK VINA RESULT:      -2.4     15.391     24.857
ROOT
ATOM      1  C1  Z9H D   1      36.582  41.716  15.6000  0.00  0.00     0.000 C
ATOM      2  C2  Z9H D   1      37.782  42.691  15.6520  0.00  0.00     0.000 C
ATOM      3  C3  Z9H D   1      38.907  41.646  15.9210  0.00  0.00     0.000 C
ATOM      4  C4  Z9H D   1      38.630  40.641  17.1140  0.00  0.00     0.000 C
ATOM      5  C5  Z9H D   1      37.263  39.869  17.2930  0.00  0.00     0.000 C
ATOM      6  O5  Z9H D   1      36.325  40.805  16.7050  0.00  0.00     0.000 O
ATOM      7   O  Z9H D   1      40.180  42.273  16.0850  0.00  0.00     0.000 O
ATOM      8   C  Z9H D   1      41.021  42.276  14.9190  0.00  0.00     0.000 C
ATOM      9   O  Z9H D   1      39.665  39.655  17.0400  0.00  0.00     0.000 O
ATOM     10   C  Z9H D   1      40.762  39.843  17.9390  0.00  0.00     0.000 C
ENDROOT
BRANCH 2 11
ATOM     11   O  Z9H D   1      37.927  43.047  14.3020  0.00  0.00     0.000 O
ATOM     12   O  Z9H D   1      37.620  44.780  13.6240  0.00  0.00     0.000 OA
ATOM     13   S  Z9H D   1      37.523  44.417  14.9980  0.00  0.00     0.000 S
ATOM     14   O  Z9H D   1      38.629  44.862  15.7950  0.00  0.00     0.000 OA
ATOM     15   O  Z9H D   1      36.141  44.413  15.4210  0.00  0.00     0.000 O
ENDBRANCH 2 11
BRANCH 5 16
ATOM     16   C  Z9H D   1      37.008  39.222  18.8160  0.00  0.00     0.000 C
ATOM     17   S  Z9H D   1      37.725  39.140  20.6920  0.00  0.00     0.000 S
ATOM     18   O  Z9H D   1      37.545  40.284  19.5670  0.00  0.00     0.000 O
ATOM     19   O  Z9H D   1      38.698  38.133  20.3770  0.00  0.00     0.000 O
ATOM     20   O  Z9H D   1      36.474  38.851  21.3020  0.00  0.00     0.000 OA
ATOM     21   O  Z9H D   1      38.307  40.248  21.3910  0.00  0.00     0.000 OA
ENDBRANCH 5 16
BRANCH 1 22
ATOM     22  O4  GU1 D   2      36.603  40.768  14.4720  0.00  0.00     0.000 O
BRANCH 22 26
ATOM     23  C1  GU1 D   2      34.261  38.781  11.7270  0.00  0.00     0.000 C
ATOM     24  C2  GU1 D   2      33.731  40.141  12.1540  0.00  0.00     0.000 C
ATOM     25  C3  GU1 D   2      34.827  40.911  12.8330  0.00  0.00     0.000 C
ATOM     26  C4  GU1 D   2      35.444  40.099  13.9620  0.00  0.00     0.000 C
ATOM     27  C5  GU1 D   2      35.847  38.713  13.4520  0.00  0.00     0.000 C
ATOM     28  O5  GU1 D   2      34.731  38.056  12.8570  0.00  0.00     0.000 O
ATOM     29   O  GU1 D   2      33.271  40.905  11.0460  0.00  0.00     0.000 O
ATOM     30   C  GU1 D   2      31.868  40.825  10.8350  0.00  0.00     0.000 C
ATOM     31   C  GU1 D   2      34.521  43.290  12.6290  0.00  0.00     0.000 C
ATOM     32   O  GU1 D   2      34.265  42.107  13.3820  0.00  0.00     0.000 O
BRANCH 27 33
ATOM     33   C  GU1 D   2      36.352  37.841  14.5770  0.00  0.00     0.000 C
ATOM     34   O  GU1 D   2      35.555  37.445  15.4030  0.00  0.00     0.000 OA
ATOM     35   O  GU1 D   2      37.534  37.542  14.6490  0.00  0.00     0.000 O
ENDBRANCH 27 33
BRANCH 23 36
ATOM     36  O4  GU6 D   3      33.348  37.760  11.2770  0.00  0.00     0.000 O
BRANCH 36 40
ATOM     37  C1  GU6 D   3      31.374  35.186   8.7920  0.00  0.00     0.000 C
ATOM     38  C2  GU6 D   3      30.945  35.089  10.2510  0.00  0.00     0.000 C
ATOM     39  C3  GU6 D   3      31.521  36.246  11.0250  0.00  0.00     0.000 C
ATOM     40  C4  GU6 D   3      32.518  37.087  10.3520  0.00  0.00     0.000 C
ATOM     41  C5  GU6 D   3      33.445  36.191   9.4670  0.00  0.00     0.000 C
ATOM     42  O5  GU6 D   3      32.792  35.148   8.7340  0.00  0.00     0.000 O
BRANCH 38 43
ATOM     43   O  GU6 D   3      29.535  35.092  10.3560  0.00  0.00     0.000 O
ATOM     44   S  GU6 D   3      28.912  33.710  10.5110  0.00  0.00     0.000 S
ATOM     45   O  GU6 D   3      28.805  33.093   9.1770  0.00  0.00     0.000 OA
ATOM     46   O  GU6 D   3      29.794  32.889  11.3600  0.00  0.00     0.000 O
ATOM     47   O  GU6 D   3      27.603  33.852  11.1390  0.00  0.00     0.000 OA
ENDBRANCH 38 43
BRANCH 39 48
ATOM     48   O  GU6 D   3      30.957  36.647  12.2590  0.00  0.00     0.000 O
ATOM     49   S  GU6 D   3      31.143  36.061  13.6580  0.00  0.00     0.000 S
ATOM     50   O  GU6 D   3      32.568  36.020  14.0040  0.00  0.00     0.000 OA
ATOM     51   O  GU6 D   3      30.415  37.008  14.5140  0.00  0.00     0.000 OA
ATOM     52   O  GU6 D   3      30.575  34.695  13.6850  0.00  0.00     0.000 O
ENDBRANCH 39 48
BRANCH 41 53
ATOM     53   C  GU6 D   3      34.934  36.280   9.2620  0.00  0.00     0.000 C
ATOM     54   O  GU6 D   3      35.320  35.410  10.2940  0.00  0.00     0.000 O
ATOM     55   S  GU6 D   3      36.805  35.206  10.6260  0.00  0.00     0.000 S
ATOM     56   O  GU6 D   3      37.307  36.499  11.1470  0.00  0.00     0.000 O
ATOM     57   O  GU6 D   3      36.917  34.155  11.6470  0.00  0.00     0.000 OA
ATOM     58   O  GU6 D   3      37.489  34.838   9.3660  0.00  0.00     0.000 OA
ENDBRANCH 41 53
BRANCH 37 59
ATOM     59  O4  Z9K D   4      30.934  36.200   7.8650  0.00  0.00     0.000 O
BRANCH 59 63
ATOM     60  C1  Z9K D   4      27.339  35.091   6.7270  0.00  0.00     0.000 C
ATOM     61  C2  Z9K D   4      28.226  34.334   5.7010  0.00  0.00     0.000 C
ATOM     62  C3  Z9K D   4      29.678  34.636   6.2770  0.00  0.00     0.000 C
ATOM     63  C4  Z9K D   4      30.037  36.105   6.7200  0.00  0.00     0.000 C
ATOM     64  C5  Z9K D   4      28.856  36.987   7.1530  0.00  0.00     0.000 C
ATOM     65  O5  Z9K D   4      27.937  36.029   7.7400  0.00  0.00     0.000 O
ATOM     66   O  Z9K D   4      30.736  34.251   5.3810  0.00  0.00     0.000 O
ATOM     67   C  Z9K D   4      31.127  32.892   5.4870  0.00  0.00     0.000 C
BRANCH 61 68
ATOM     68   O  Z9K D   4      28.003  32.964   5.8960  0.00  0.00     0.000 O
ATOM     69   O  Z9K D   4      28.486  33.483   3.4370  0.00  0.00     0.000 OA
ATOM     70   S  Z9K D   4      27.457  33.181   4.3860  0.00  0.00     0.000 S
ATOM     71   O  Z9K D   4      26.165  33.792   4.4420  0.00  0.00     0.000 OA
ATOM     72   O  Z9K D   4      27.324  31.771   4.5610  0.00  0.00     0.000 OA
ENDBRANCH 61 68
BRANCH 64 73
ATOM     73   C  Z9K D   4      29.343  38.172   8.0150  0.00  0.00     0.000 C
ATOM     74   O  Z9K D   4      29.104  38.221   9.2560  0.00  0.00     0.000 O
ATOM     75   O  Z9K D   4      29.996  39.124   7.5220  0.00  0.00     0.000 OA
ENDBRANCH 64 73
BRANCH 60 76
ATOM     76  O4  Z9L D   5      26.186  35.913   6.4780  0.00  0.00     0.000 O
BRANCH 76 80
ATOM     77  C1  Z9L D   5      22.489  36.793   7.7160  0.00  0.00     0.000 C
ATOM     78  C2  Z9L D   5      23.386  38.103   7.9450  0.00  0.00     0.000 C
ATOM     79  C3  Z9L D   5      24.788  37.900   7.0210  0.00  0.00     0.000 C
ATOM     80  C4  Z9L D   5      25.135  36.317   7.3170  0.00  0.00     0.000 C
ATOM     81  C5  Z9L D   5      24.187  35.012   7.3150  0.00  0.00     0.000 C
ATOM     82  O5  Z9L D   5      22.959  35.403   7.9460  0.00  0.00     0.000 O
ATOM     83   C  Z9L D   5      21.045  35.767   6.0560  0.00  0.00     0.000 C
ATOM     84   C  Z9L D   5      21.045  35.767   6.0560  0.00  0.00     0.000 C
BRANCH 78 85
ATOM     85   O  Z9L D   5      22.678  39.201   7.4650  0.00  0.00     0.000 O
ATOM     86   O  Z9L D   5      21.920  40.594   8.5590  0.00  0.00     0.000 OA
ATOM     87   S  Z9L D   5      22.754  39.533   9.0360  0.00  0.00     0.000 S
ATOM     88   O  Z9L D   5      23.982  40.173   9.4360  0.00  0.00     0.000 OA
ATOM     89   O  Z9L D   5      21.921  38.756   9.8880  0.00  0.00     0.000 OA
ENDBRANCH 78 85
BRANCH 79 90
ATOM     90   O  Z9L D   5      25.873  38.559   7.5930  0.00  0.00     0.000 O
ATOM     91   S  Z9L D   5      25.843  39.278   6.1720  0.00  0.00     0.000 S
ATOM     92   O  Z9L D   5      24.672  39.950   5.6740  0.00  0.00     0.000 OA
ATOM     93   O  Z9L D   5      26.748  38.602   5.2770  0.00  0.00     0.000 O
ATOM     94   O  Z9L D   5      26.607  40.241   6.8970  0.00  0.00     0.000 OA
ENDBRANCH 79 90
BRANCH 81 95
ATOM     95   C  Z9L D   5      24.886  33.554   7.7620  0.00  0.00     0.000 C
ATOM     96   S  Z9L D   5      24.557  31.608   8.0300  0.00  0.00     0.000 S
ATOM     97   O  Z9L D   5      23.733  32.930   8.2600  0.00  0.00     0.000 O
ATOM     98   O  Z9L D   5      25.572  31.569   9.0510  0.00  0.00     0.000 OA
ATOM     99   O  Z9L D   5      24.857  31.293   6.6740  0.00  0.00     0.000 OA
ATOM    100   O  Z9L D   5      23.351  31.023   8.5640  0.00  0.00     0.000 O
ENDBRANCH 81 95
ENDBRANCH 76 80
ENDBRANCH 60 76
ENDBRANCH 59 63
ENDBRANCH 37 59
ENDBRANCH 36 40
ENDBRANCH 23 36
ENDBRANCH 22 26
ENDBRANCH 1 22
TORSDOF 19
ENDMDL
MODEL 39
REMARK VINA RESULT:      -2.3     18.351     24.931
ROOT
ATOM      1  C1  Z9H D   1      25.322  45.017  17.7450  0.00  0.00     0.000 C
ATOM      2  C2  Z9H D   1      25.870  44.719  19.1610  0.00  0.00     0.000 C
ATOM      3  C3  Z9H D   1      24.674  45.286  19.9860  0.00  0.00     0.000 C
ATOM      4  C4  Z9H D   1      24.208  46.747  19.5900  0.00  0.00     0.000 C
ATOM      5  C5  Z9H D   1      23.964  47.202  18.0960  0.00  0.00     0.000 C
ATOM      6  O5  Z9H D   1      24.909  46.364  17.3830  0.00  0.00     0.000 O
ATOM      7   O  Z9H D   1      24.920  45.206  21.3910  0.00  0.00     0.000 O
ATOM      8   C  Z9H D   1      24.321  44.082  22.0580  0.00  0.00     0.000 C
ATOM      9   O  Z9H D   1      22.988  46.973  20.3040  0.00  0.00     0.000 O
ATOM     10   C  Z9H D   1      23.111  47.735  21.5090  0.00  0.00     0.000 C
ENDROOT
BRANCH 2 11
ATOM     11   O  Z9H D   1      25.739  43.324  19.2370  0.00  0.00     0.000 O
ATOM     12   O  Z9H D   1      27.192  42.128  19.3640  0.00  0.00     0.000 OA
ATOM     13   S  Z9H D   1      27.309  43.547  19.3340  0.00  0.00     0.000 S
ATOM     14   O  Z9H D   1      27.603  44.132  20.6110  0.00  0.00     0.000 OA
ATOM     15   O  Z9H D   1      27.865  43.981  18.0730  0.00  0.00     0.000 O
ENDBRANCH 2 11
BRANCH 5 16
ATOM     16   C  Z9H D   1      23.917  48.858  17.8570  0.00  0.00     0.000 C
ATOM     17   S  Z9H D   1      24.203  50.640  18.7410  0.00  0.00     0.000 S
ATOM     18   O  Z9H D   1      24.950  49.209  18.7460  0.00  0.00     0.000 O
ATOM     19   O  Z9H D   1      22.909  50.647  19.3620  0.00  0.00     0.000 O
ATOM     20   O  Z9H D   1      24.493  51.341  17.5390  0.00  0.00     0.000 OA
ATOM     21   O  Z9H D   1      25.249  50.926  19.6780  0.00  0.00     0.000 OA
ENDBRANCH 5 16
BRANCH 1 22
ATOM     22  O4  GU1 D   2      24.114  44.259  17.3760  0.00  0.00     0.000 O
BRANCH 22 26
ATOM     23  C1  GU1 D   2      22.159  42.334  14.3030  0.00  0.00     0.000 C
ATOM     24  C2  GU1 D   2      23.677  42.249  14.2490  0.00  0.00     0.000 C
ATOM     25  C3  GU1 D   2      24.245  42.637  15.5830  0.00  0.00     0.000 C
ATOM     26  C4  GU1 D   2      23.712  43.991  16.0270  0.00  0.00     0.000 C
ATOM     27  C5  GU1 D   2      22.183  44.006  15.9470  0.00  0.00     0.000 C
ATOM     28  O5  GU1 D   2      21.750  43.656  14.6350  0.00  0.00     0.000 O
ATOM     29   O  GU1 D   2      24.125  40.934  13.9400  0.00  0.00     0.000 O
ATOM     30   C  GU1 D   2      24.423  40.736  12.5650  0.00  0.00     0.000 C
ATOM     31   C  GU1 D   2      26.382  41.608  15.9900  0.00  0.00     0.000 C
ATOM     32   O  GU1 D   2      25.668  42.723  15.4600  0.00  0.00     0.000 O
BRANCH 27 33
ATOM     33   C  GU1 D   2      21.632  45.375  16.2660  0.00  0.00     0.000 C
ATOM     34   O  GU1 D   2      21.006  45.520  17.2970  0.00  0.00     0.000 OA
ATOM     35   O  GU1 D   2      21.817  46.312  15.5060  0.00  0.00     0.000 O
ENDBRANCH 27 33
BRANCH 23 36
ATOM     36  O4  GU6 D   3      21.388  42.251  13.0880  0.00  0.00     0.000 O
BRANCH 36 40
ATOM     37  C1  GU6 D   3      18.405  41.382  10.4350  0.00  0.00     0.000 C
ATOM     38  C2  GU6 D   3      18.545  40.367  11.5620  0.00  0.00     0.000 C
ATOM     39  C3  GU6 D   3      19.470  40.911  12.6190  0.00  0.00     0.000 C
ATOM     40  C4  GU6 D   3      20.216  42.135  12.3070  0.00  0.00     0.000 C
ATOM     41  C5  GU6 D   3      20.660  42.109  10.8080  0.00  0.00     0.000 C
ATOM     42  O5  GU6 D   3      19.688  41.618   9.8770  0.00  0.00     0.000 O
BRANCH 38 43
ATOM     43   O  GU6 D   3      17.282  40.076  12.1290  0.00  0.00     0.000 O
ATOM     44   S  GU6 D   3      16.562  38.896  11.4900  0.00  0.00     0.000 S
ATOM     45   O  GU6 D   3      15.895  39.363  10.2630  0.00  0.00     0.000 OA
ATOM     46   O  GU6 D   3      17.560  37.867  11.1440  0.00  0.00     0.000 O
ATOM     47   O  GU6 D   3      15.600  38.358  12.4470  0.00  0.00     0.000 OA
ENDBRANCH 38 43
BRANCH 39 48
ATOM     48   O  GU6 D   3      19.447  40.399  13.9380  0.00  0.00     0.000 O
ATOM     49   S  GU6 D   3      19.994  39.083  14.4890  0.00  0.00     0.000 S
ATOM     50   O  GU6 D   3      21.420  38.953  14.1660  0.00  0.00     0.000 OA
ATOM     51   O  GU6 D   3      19.788  39.218  15.9380  0.00  0.00     0.000 OA
ATOM     52   O  GU6 D   3      19.235  37.961  13.8930  0.00  0.00     0.000 O
ENDBRANCH 39 48
BRANCH 41 53
ATOM     53   C  GU6 D   3      21.966  42.544  10.1990  0.00  0.00     0.000 C
ATOM     54   O  GU6 D   3      21.443  43.180   9.0610  0.00  0.00     0.000 O
ATOM     55   S  GU6 D   3      22.381  43.737   7.9810  0.00  0.00     0.000 S
ATOM     56   O  GU6 D   3      23.059  42.574   7.3640  0.00  0.00     0.000 O
ATOM     57   O  GU6 D   3      21.573  44.456   6.9850  0.00  0.00     0.000 OA
ATOM     58   O  GU6 D   3      23.354  44.623   8.6580  0.00  0.00     0.000 OA
ENDBRANCH 41 53
BRANCH 37 59
ATOM     59  O4  Z9K D   4      17.744  42.660  10.5470  0.00  0.00     0.000 O
BRANCH 59 63
ATOM     60  C1  Z9K D   4      14.814  45.060   9.4980  0.00  0.00     0.000 C
ATOM     61  C2  Z9K D   4      14.960  44.188   8.2210  0.00  0.00     0.000 C
ATOM     62  C3  Z9K D   4      16.014  43.105   8.7150  0.00  0.00     0.000 C
ATOM     63  C4  Z9K D   4      17.287  43.580   9.5140  0.00  0.00     0.000 C
ATOM     64  C5  Z9K D   4      17.144  44.899  10.2880  0.00  0.00     0.000 C
ATOM     65  O5  Z9K D   4      15.744  44.898  10.6700  0.00  0.00     0.000 O
ATOM     66   O  Z9K D   4      16.530  42.286   7.6500  0.00  0.00     0.000 O
ATOM     67   C  Z9K D   4      15.727  41.161   7.3340  0.00  0.00     0.000 C
BRANCH 61 68
ATOM     68   O  Z9K D   4      13.748  43.507   8.0470  0.00  0.00     0.000 O
ATOM     69   O  Z9K D   4      14.815  44.091   5.7950  0.00  0.00     0.000 OA
ATOM     70   S  Z9K D   4      13.794  44.452   6.7320  0.00  0.00     0.000 S
ATOM     71   O  Z9K D   4      13.434  45.786   7.1040  0.00  0.00     0.000 OA
ATOM     72   O  Z9K D   4      12.610  43.684   6.5170  0.00  0.00     0.000 OA
ENDBRANCH 61 68
BRANCH 64 73
ATOM     73   C  Z9K D   4      18.215  45.005  11.3940  0.00  0.00     0.000 C
ATOM     74   O  Z9K D   4      19.409  45.327  11.1230  0.00  0.00     0.000 O
ATOM     75   O  Z9K D   4      17.944  44.785  12.6000  0.00  0.00     0.000 OA
ENDBRANCH 64 73
BRANCH 60 76
ATOM     76  O4  Z9L D   5      14.751  46.493   9.6010  0.00  0.00     0.000 O
BRANCH 76 80
ATOM     77  C1  Z9L D   5      12.981  49.553  11.4650  0.00  0.00     0.000 C
ATOM     78  C2  Z9L D   5      14.525  49.568  11.9000  0.00  0.00     0.000 C
ATOM     79  C3  Z9L D   5      15.351  48.597  10.7880  0.00  0.00     0.000 C
ATOM     80  C4  Z9L D   5      14.308  47.331  10.6370  0.00  0.00     0.000 C
ATOM     81  C5  Z9L D   5      12.709  47.301  10.4290  0.00  0.00     0.000 C
ATOM     82  O5  Z9L D   5      12.172  48.321  11.2840  0.00  0.00     0.000 O
ATOM     83   C  Z9L D   5      11.485  50.484   9.7950  0.00  0.00     0.000 C
ATOM     84   C  Z9L D   5      11.485  50.484   9.7950  0.00  0.00     0.000 C
BRANCH 78 85
ATOM     85   O  Z9L D   5      14.990  50.876  11.7970  0.00  0.00     0.000 O
ATOM     86   O  Z9L D   5      15.467  52.000  13.2870  0.00  0.00     0.000 OA
ATOM     87   S  Z9L D   5      15.109  50.618  13.3790  0.00  0.00     0.000 S
ATOM     88   O  Z9L D   5      16.323  49.942  13.7680  0.00  0.00     0.000 OA
ATOM     89   O  Z9L D   5      13.890  50.594  14.1110  0.00  0.00     0.000 OA
ENDBRANCH 78 85
BRANCH 79 90
ATOM     90   O  Z9L D   5      16.468  48.002  11.3670  0.00  0.00     0.000 O
ATOM     91   S  Z9L D   5      17.173  48.786  10.1730  0.00  0.00     0.000 S
ATOM     92   O  Z9L D   5      17.028  50.207   9.9930  0.00  0.00     0.000 OA
ATOM     93   O  Z9L D   5      17.312  47.906   9.0400  0.00  0.00     0.000 O
ATOM     94   O  Z9L D   5      18.310  48.580  11.0100  0.00  0.00     0.000 OA
ENDBRANCH 79 90
BRANCH 81 95
ATOM     95   C  Z9L D   5      11.964  45.799  10.4110  0.00  0.00     0.000 C
ATOM     96   S  Z9L D   5      11.137  44.380  11.5390  0.00  0.00     0.000 S
ATOM     97   O  Z9L D   5      12.348  45.375  11.6920  0.00  0.00     0.000 O
ATOM     98   O  Z9L D   5      11.542  43.378  10.5870  0.00  0.00     0.000 OA
ATOM     99   O  Z9L D   5       9.847  44.979  11.4790  0.00  0.00     0.000 OA
ATOM    100   O  Z9L D   5      11.588  43.975  12.8470  0.00  0.00     0.000 O
ENDBRANCH 81 95
ENDBRANCH 76 80
ENDBRANCH 60 76
ENDBRANCH 59 63
ENDBRANCH 37 59
ENDBRANCH 36 40
ENDBRANCH 23 36
ENDBRANCH 22 26
ENDBRANCH 1 22
TORSDOF 19
ENDMDL
MODEL 40
REMARK VINA RESULT:      -2.2     21.824     26.403
ROOT
ATOM      1  C1  Z9H D   1      12.147  53.711  17.8090  0.00  0.00     0.000 C
ATOM      2  C2  Z9H D   1      12.358  54.099  19.2920  0.00  0.00     0.000 C
ATOM      3  C3  Z9H D   1      12.330  52.664  19.9020  0.00  0.00     0.000 C
ATOM      4  C4  Z9H D   1      11.100  51.765  19.4680  0.00  0.00     0.000 C
ATOM      5  C5  Z9H D   1      10.629  51.612  17.9670  0.00  0.00     0.000 C
ATOM      6  O5  Z9H D   1      11.008  52.897  17.4140  0.00  0.00     0.000 O
ATOM      7   O  Z9H D   1      12.444  52.696  21.3260  0.00  0.00     0.000 O
ATOM      8   C  Z9H D   1      13.763  52.452  21.8440  0.00  0.00     0.000 C
ATOM      9   O  Z9H D   1      11.388  50.451  19.9570  0.00  0.00     0.000 O
ATOM     10   C  Z9H D   1      10.744  50.094  21.1840  0.00  0.00     0.000 C
ENDROOT
BRANCH 2 11
ATOM     11   O  Z9H D   1      13.709  54.477  19.3060  0.00  0.00     0.000 O
ATOM     12   O  Z9H D   1      14.317  56.230  19.6470  0.00  0.00     0.000 OA
ATOM     13   S  Z9H D   1      12.952  55.823  19.6760  0.00  0.00     0.000 S
ATOM     14   O  Z9H D   1      12.415  55.689  21.0010  0.00  0.00     0.000 OA
ATOM     15   O  Z9H D   1      12.240  56.365  18.5420  0.00  0.00     0.000 O
ENDBRANCH 2 11
BRANCH 5 16
ATOM     16   C  Z9H D   1       9.084  51.000  17.7680  0.00  0.00     0.000 C
ATOM     17   S  Z9H D   1       7.425  50.413  18.7410  0.00  0.00     0.000 S
ATOM     18   O  Z9H D   1       8.486  51.622  18.8810  0.00  0.00     0.000 O
ATOM     19   O  Z9H D   1       7.950  49.113  19.0470  0.00  0.00     0.000 O
ATOM     20   O  Z9H D   1       6.539  50.662  17.6590  0.00  0.00     0.000 OA
ATOM     21   O  Z9H D   1       6.890  51.062  19.9020  0.00  0.00     0.000 OA
ENDBRANCH 5 16
BRANCH 1 22
ATOM     22  O4  GU1 D   2      13.249  52.939  17.2080  0.00  0.00     0.000 O
BRANCH 22 26
ATOM     23  C1  GU1 D   2      15.450  52.356  13.7750  0.00  0.00     0.000 C
ATOM     24  C2  GU1 D   2      14.946  53.776  13.9790  0.00  0.00     0.000 C
ATOM     25  C3  GU1 D   2      14.508  53.950  15.4040  0.00  0.00     0.000 C
ATOM     26  C4  GU1 D   2      13.511  52.872  15.8020  0.00  0.00     0.000 C
ATOM     27  C5  GU1 D   2      14.071  51.487  15.4610  0.00  0.00     0.000 C
ATOM     28  O5  GU1 D   2      14.425  51.418  14.0820  0.00  0.00     0.000 O
ATOM     29   O  GU1 D   2      15.953  54.743  13.7020  0.00  0.00     0.000 O
ATOM     30   C  GU1 D   2      15.882  55.288  12.3920  0.00  0.00     0.000 C
ATOM     31   C  GU1 D   2      14.682  56.237  16.1320  0.00  0.00     0.000 C
ATOM     32   O  GU1 D   2      13.876  55.227  15.5300  0.00  0.00     0.000 O
BRANCH 27 33
ATOM     33   C  GU1 D   2      13.054  50.404  15.7330  0.00  0.00     0.000 C
ATOM     34   O  GU1 D   2      12.071  50.344  15.0230  0.00  0.00     0.000 OA
ATOM     35   O  GU1 D   2      13.224  49.608  16.6430  0.00  0.00     0.000 O
ENDBRANCH 27 33
BRANCH 23 36
ATOM     36  O4  GU6 D   3      15.697  51.862  12.4440  0.00  0.00     0.000 O
BRANCH 36 40
ATOM     37  C1  GU6 D   3      16.344  49.633   9.0810  0.00  0.00     0.000 C
ATOM     38  C2  GU6 D   3      17.620  50.066   9.7910  0.00  0.00     0.000 C
ATOM     39  C3  GU6 D   3      17.278  50.637  11.1420  0.00  0.00     0.000 C
ATOM     40  C4  GU6 D   3      15.862  50.881  11.4400  0.00  0.00     0.000 C
ATOM     41  C5  GU6 D   3      15.141  51.408  10.1560  0.00  0.00     0.000 C
ATOM     42  O5  GU6 D   3      15.504  50.767   8.9280  0.00  0.00     0.000 O
BRANCH 38 43
ATOM     43   O  GU6 D   3      18.504  48.972   9.9380  0.00  0.00     0.000 O
ATOM     44   S  GU6 D   3      19.593  48.894   8.8760  0.00  0.00     0.000 S
ATOM     45   O  GU6 D   3      19.026  48.265   7.6700  0.00  0.00     0.000 OA
ATOM     46   O  GU6 D   3      20.034  50.263   8.5530  0.00  0.00     0.000 O
ATOM     47   O  GU6 D   3      20.711  48.120   9.4040  0.00  0.00     0.000 OA
ENDBRANCH 38 43
BRANCH 39 48
ATOM     48   O  GU6 D   3      18.252  50.714  12.1660  0.00  0.00     0.000 O
ATOM     49   S  GU6 D   3      19.323  51.774  12.4220  0.00  0.00     0.000 S
ATOM     50   O  GU6 D   3      18.707  53.102  12.5230  0.00  0.00     0.000 OA
ATOM     51   O  GU6 D   3      19.902  51.358  13.7060  0.00  0.00     0.000 OA
ATOM     52   O  GU6 D   3      20.296  51.751  11.3070  0.00  0.00     0.000 O
ENDBRANCH 39 48
BRANCH 41 53
ATOM     53   C  GU6 D   3      14.104  52.491  10.0290  0.00  0.00     0.000 C
ATOM     54   O  GU6 D   3      13.036  51.683   9.6060  0.00  0.00     0.000 O
ATOM     55   S  GU6 D   3      11.695  52.313   9.2050  0.00  0.00     0.000 S
ATOM     56   O  GU6 D   3      11.946  53.109   7.9810  0.00  0.00     0.000 O
ATOM     57   O  GU6 D   3      10.733  51.234   8.9350  0.00  0.00     0.000 OA
ATOM     58   O  GU6 D   3      11.265  53.180  10.3240  0.00  0.00     0.000 OA
ENDBRANCH 41 53
BRANCH 37 59
ATOM     59  O4  Z9K D   4      15.506  48.529   9.4840  0.00  0.00     0.000 O
BRANCH 59 63
ATOM     60  C1  Z9K D   4      16.945  45.079   8.2720  0.00  0.00     0.000 C
ATOM     61  C2  Z9K D   4      16.322  45.624   6.9570  0.00  0.00     0.000 C
ATOM     62  C3  Z9K D   4      15.906  47.091   7.4060  0.00  0.00     0.000 C
ATOM     63  C4  Z9K D   4      15.173  47.293   8.7870  0.00  0.00     0.000 C
ATOM     64  C5  Z9K D   4      15.447  46.227   9.8580  0.00  0.00     0.000 C
ATOM     65  O5  Z9K D   4      16.812  45.825   9.5710  0.00  0.00     0.000 O
ATOM     66   O  Z9K D   4      15.076  47.767   6.4440  0.00  0.00     0.000 O
ATOM     67   C  Z9K D   4      15.792  48.432   5.4170  0.00  0.00     0.000 C
BRANCH 61 68
ATOM     68   O  Z9K D   4      17.368  45.775   6.0380  0.00  0.00     0.000 O
ATOM     69   O  Z9K D   4      15.197  45.097   4.8650  0.00  0.00     0.000 OA
ATOM     70   S  Z9K D   4      16.467  44.628   5.3330  0.00  0.00     0.000 S
ATOM     71   O  Z9K D   4      16.708  43.379   5.9870  0.00  0.00     0.000 OA
ATOM     72   O  Z9K D   4      17.485  44.860   4.3600  0.00  0.00     0.000 OA
ENDBRANCH 61 68
BRANCH 64 73
ATOM     73   C  Z9K D   4      15.112  46.765  11.2660  0.00  0.00     0.000 C
ATOM     74   O  Z9K D   4      13.916  46.844  11.6700  0.00  0.00     0.000 O
ATOM     75   O  Z9K D   4      16.009  47.135  12.0630  0.00  0.00     0.000 OA
ENDBRANCH 64 73
BRANCH 60 76
ATOM     76  O4  Z9L D   5      16.781  43.781   8.8690  0.00  0.00     0.000 O
BRANCH 76 80
ATOM     77  C1  Z9L D   5      18.685  40.743  10.6330  0.00  0.00     0.000 C
ATOM     78  C2  Z9L D   5      17.714  41.391  11.7330  0.00  0.00     0.000 C
ATOM     79  C3  Z9L D   5      16.598  42.344  10.8940  0.00  0.00     0.000 C
ATOM     80  C4  Z9L D   5      17.575  43.074   9.7860  0.00  0.00     0.000 C
ATOM     81  C5  Z9L D   5      18.724  42.466   8.8320  0.00  0.00     0.000 C
ATOM     82  O5  Z9L D   5      19.454  41.522   9.6290  0.00  0.00     0.000 O
ATOM     83   C  Z9L D   5      18.720  39.000   8.9440  0.00  0.00     0.000 C
ATOM     84   C  Z9L D   5      18.720  39.000   8.9440  0.00  0.00     0.000 C
BRANCH 78 85
ATOM     85   O  Z9L D   5      17.039  40.357  12.3760  0.00  0.00     0.000 O
ATOM     86   O  Z9L D   5      17.317  39.823  14.2060  0.00  0.00     0.000 OA
ATOM     87   S  Z9L D   5      17.916  40.962  13.5790  0.00  0.00     0.000 S
ATOM     88   O  Z9L D   5      17.312  42.103  14.2220  0.00  0.00     0.000 OA
ATOM     89   O  Z9L D   5      19.311  40.683  13.5490  0.00  0.00     0.000 OA
ENDBRANCH 78 85
BRANCH 79 90
ATOM     90   O  Z9L D   5      16.164  43.417  11.6670  0.00  0.00     0.000 O
ATOM     91   S  Z9L D   5      14.765  42.710  11.3830  0.00  0.00     0.000 S
ATOM     92   O  Z9L D   5      14.516  41.333  11.7160  0.00  0.00     0.000 OA
ATOM     93   O  Z9L D   5      14.150  43.317  10.2280  0.00  0.00     0.000 O
ATOM     94   O  Z9L D   5      14.396  43.493  12.5170  0.00  0.00     0.000 OA
ENDBRANCH 79 90
BRANCH 81 95
ATOM     95   C  Z9L D   5      19.588  43.548   7.8840  0.00  0.00     0.000 C
ATOM     96   S  Z9L D   5      21.277  44.593   7.7380  0.00  0.00     0.000 S
ATOM     97   O  Z9L D   5      20.315  44.169   8.9100  0.00  0.00     0.000 O
ATOM     98   O  Z9L D   5      20.591  45.611   6.9850  0.00  0.00     0.000 OA
ATOM     99   O  Z9L D   5      21.967  43.530   7.0880  0.00  0.00     0.000 OA
ATOM    100   O  Z9L D   5      21.973  45.225   8.8310  0.00  0.00     0.000 O
ENDBRANCH 81 95
ENDBRANCH 76 80
ENDBRANCH 60 76
ENDBRANCH 59 63
ENDBRANCH 37 59
ENDBRANCH 36 40
ENDBRANCH 23 36
ENDBRANCH 22 26
ENDBRANCH 1 22
TORSDOF 19
ENDMDL
MODEL 41
REMARK VINA RESULT:      -2.2     19.036     25.922
ROOT
ATOM      1  C1  Z9H D   1      27.101  44.117  17.6960  0.00  0.00     0.000 C
ATOM      2  C2  Z9H D   1      27.927  42.881  18.1240  0.00  0.00     0.000 C
ATOM      3  C3  Z9H D   1      27.633  42.937  19.6550  0.00  0.00     0.000 C
ATOM      4  C4  Z9H D   1      27.871  44.345  20.3410  0.00  0.00     0.000 C
ATOM      5  C5  Z9H D   1      27.327  45.702  19.7410  0.00  0.00     0.000 C
ATOM      6  O5  Z9H D   1      27.334  45.411  18.3200  0.00  0.00     0.000 O
ATOM      7   O  Z9H D   1      28.336  41.914  20.3630  0.00  0.00     0.000 O
ATOM      8   C  Z9H D   1      27.567  40.738  20.6700  0.00  0.00     0.000 C
ATOM      9   O  Z9H D   1      27.341  44.226  21.6660  0.00  0.00     0.000 O
ATOM     10   C  Z9H D   1      28.302  43.974  22.6950  0.00  0.00     0.000 C
ENDROOT
BRANCH 2 11
ATOM     11   O  Z9H D   1      27.142  41.823  17.6390  0.00  0.00     0.000 O
ATOM     12   O  Z9H D   1      27.676  40.652  16.2610  0.00  0.00     0.000 OA
ATOM     13   S  Z9H D   1      28.481  41.698  16.7950  0.00  0.00     0.000 S
ATOM     14   O  Z9H D   1      29.524  41.239  17.6690  0.00  0.00     0.000 OA
ATOM     15   O  Z9H D   1      28.612  42.772  15.8380  0.00  0.00     0.000 O
ENDBRANCH 2 11
BRANCH 5 16
ATOM     16   C  Z9H D   1      28.045  47.085  20.3500  0.00  0.00     0.000 C
ATOM     17   S  Z9H D   1      29.527  47.771  21.5220  0.00  0.00     0.000 S
ATOM     18   O  Z9H D   1      29.364  46.600  20.4220  0.00  0.00     0.000 O
ATOM     19   O  Z9H D   1      28.791  47.564  22.7360  0.00  0.00     0.000 O
ATOM     20   O  Z9H D   1      29.632  49.035  20.8800  0.00  0.00     0.000 OA
ATOM     21   O  Z9H D   1      30.842  47.204  21.5880  0.00  0.00     0.000 OA
ENDBRANCH 5 16
BRANCH 1 22
ATOM     22  O4  GU1 D   2      25.646  43.987  17.8870  0.00  0.00     0.000 O
BRANCH 22 26
ATOM     23  C1  GU1 D   2      21.958  44.916  16.3050  0.00  0.00     0.000 C
ATOM     24  C2  GU1 D   2      23.055  44.687  15.2770  0.00  0.00     0.000 C
ATOM     25  C3  GU1 D   2      24.215  43.995  15.9330  0.00  0.00     0.000 C
ATOM     26  C4  GU1 D   2      24.670  44.753  17.1720  0.00  0.00     0.000 C
ATOM     27  C5  GU1 D   2      23.474  45.024  18.0900  0.00  0.00     0.000 C
ATOM     28  O5  GU1 D   2      22.446  45.710  17.3800  0.00  0.00     0.000 O
ATOM     29   O  GU1 D   2      22.610  43.878  14.1950  0.00  0.00     0.000 O
ATOM     30   C  GU1 D   2      22.194  44.618  13.0560  0.00  0.00     0.000 C
ATOM     31   C  GU1 D   2      25.491  42.686  14.3680  0.00  0.00     0.000 C
ATOM     32   O  GU1 D   2      25.300  43.949  15.0010  0.00  0.00     0.000 O
BRANCH 27 33
ATOM     33   C  GU1 D   2      23.872  45.879  19.2690  0.00  0.00     0.000 C
ATOM     34   O  GU1 D   2      23.899  45.368  20.3700  0.00  0.00     0.000 OA
ATOM     35   O  GU1 D   2      24.164  47.054  19.1130  0.00  0.00     0.000 O
ENDBRANCH 27 33
BRANCH 23 36
ATOM     36  O4  GU6 D   3      20.844  45.776  15.9910  0.00  0.00     0.000 O
BRANCH 36 40
ATOM     37  C1  GU6 D   3      17.098  47.065  14.9930  0.00  0.00     0.000 C
ATOM     38  C2  GU6 D   3      18.144  48.173  15.0300  0.00  0.00     0.000 C
ATOM     39  C3  GU6 D   3      19.518  47.566  15.1350  0.00  0.00     0.000 C
ATOM     40  C4  GU6 D   3      19.609  46.126  15.4010  0.00  0.00     0.000 C
ATOM     41  C5  GU6 D   3      18.484  45.708  16.4040  0.00  0.00     0.000 C
ATOM     42  O5  GU6 D   3      17.201  46.306  16.1880  0.00  0.00     0.000 O
BRANCH 38 43
ATOM     43   O  GU6 D   3      18.058  48.977  13.8700  0.00  0.00     0.000 O
ATOM     44   S  GU6 D   3      17.143  50.187  14.0090  0.00  0.00     0.000 S
ATOM     45   O  GU6 D   3      15.752  49.749  13.7990  0.00  0.00     0.000 OA
ATOM     46   O  GU6 D   3      17.286  50.731  15.3710  0.00  0.00     0.000 O
ATOM     47   O  GU6 D   3      17.538  51.191  13.0260  0.00  0.00     0.000 OA
ENDBRANCH 38 43
BRANCH 39 48
ATOM     48   O  GU6 D   3      20.668  48.302  14.7620  0.00  0.00     0.000 O
ATOM     49   S  GU6 D   3      21.430  49.384  15.5260  0.00  0.00     0.000 S
ATOM     50   O  GU6 D   3      21.838  48.881  16.8420  0.00  0.00     0.000 OA
ATOM     51   O  GU6 D   3      22.597  49.636  14.6690  0.00  0.00     0.000 OA
ATOM     52   O  GU6 D   3      20.555  50.566  15.6840  0.00  0.00     0.000 O
ENDBRANCH 39 48
BRANCH 41 53
ATOM     53   C  GU6 D   3      18.555  44.749  17.5610  0.00  0.00     0.000 C
ATOM     54   O  GU6 D   3      18.544  43.555  16.8210  0.00  0.00     0.000 O
ATOM     55   S  GU6 D   3      18.488  42.198  17.5340  0.00  0.00     0.000 S
ATOM     56   O  GU6 D   3      17.169  42.122  18.2060  0.00  0.00     0.000 O
ATOM     57   O  GU6 D   3      18.620  41.134  16.5280  0.00  0.00     0.000 OA
ATOM     58   O  GU6 D   3      19.590  42.174  18.5210  0.00  0.00     0.000 OA
ENDBRANCH 41 53
BRANCH 37 59
ATOM     59  O4  Z9K D   4      16.916  46.133  13.9070  0.00  0.00     0.000 O
BRANCH 59 63
ATOM     60  C1  Z9K D   4      14.449  45.236  10.9820  0.00  0.00     0.000 C
ATOM     61  C2  Z9K D   4      13.451  45.590  12.1190  0.00  0.00     0.000 C
ATOM     62  C3  Z9K D   4      14.447  46.128  13.2370  0.00  0.00     0.000 C
ATOM     63  C4  Z9K D   4      15.763  45.318  13.5460  0.00  0.00     0.000 C
ATOM     64  C5  Z9K D   4      16.313  44.460  12.3970  0.00  0.00     0.000 C
ATOM     65  O5  Z9K D   4      15.934  45.219  11.2190  0.00  0.00     0.000 O
ATOM     66   O  Z9K D   4      13.817  46.314  14.5170  0.00  0.00     0.000 O
ATOM     67   C  Z9K D   4      13.177  47.569  14.6790  0.00  0.00     0.000 C
BRANCH 61 68
ATOM     68   O  Z9K D   4      12.711  46.698  11.6860  0.00  0.00     0.000 O
ATOM     69   O  Z9K D   4      11.292  45.152  13.1510  0.00  0.00     0.000 OA
ATOM     70   S  Z9K D   4      11.567  45.557  11.8050  0.00  0.00     0.000 S
ATOM     71   O  Z9K D   4      11.656  44.688  10.6720  0.00  0.00     0.000 OA
ATOM     72   O  Z9K D   4      10.810  46.716  11.4570  0.00  0.00     0.000 OA
ENDBRANCH 61 68
BRANCH 64 73
ATOM     73   C  Z9K D   4      17.805  44.134  12.6210  0.00  0.00     0.000 C
ATOM     74   O  Z9K D   4      18.168  43.287  13.4880  0.00  0.00     0.000 O
ATOM     75   O  Z9K D   4      18.711  44.687  11.9510  0.00  0.00     0.000 OA
ENDBRANCH 64 73
BRANCH 60 76
ATOM     76  O4  Z9L D   5      14.456  44.079  10.1280  0.00  0.00     0.000 O
BRANCH 76 80
ATOM     77  C1  Z9L D   5      15.021  42.878   6.3580  0.00  0.00     0.000 C
ATOM     78  C2  Z9L D   5      16.126  42.140   7.2570  0.00  0.00     0.000 C
ATOM     79  C3  Z9L D   5      15.613  42.274   8.8630  0.00  0.00     0.000 C
ATOM     80  C4  Z9L D   5      15.093  43.837   8.9000  0.00  0.00     0.000 C
ATOM     81  C5  Z9L D   5      14.163  44.663   7.8740  0.00  0.00     0.000 C
ATOM     82  O5  Z9L D   5      14.581  44.283   6.5540  0.00  0.00     0.000 O
ATOM     83   C  Z9L D   5      12.776  42.557   5.4930  0.00  0.00     0.000 C
ATOM     84   C  Z9L D   5      12.776  42.557   5.4930  0.00  0.00     0.000 C
BRANCH 78 85
ATOM     85   O  Z9L D   5      16.149  40.796   6.8950  0.00  0.00     0.000 O
ATOM     86   O  Z9L D   5      17.414  39.998   5.6820  0.00  0.00     0.000 OA
ATOM     87   S  Z9L D   5      17.463  41.349   6.1530  0.00  0.00     0.000 S
ATOM     88   O  Z9L D   5      18.628  41.408   7.0010  0.00  0.00     0.000 OA
ATOM     89   O  Z9L D   5      17.247  42.155   5.0010  0.00  0.00     0.000 OA
ENDBRANCH 78 85
BRANCH 79 90
ATOM     90   O  Z9L D   5      16.694  42.294   9.7400  0.00  0.00     0.000 O
ATOM     91   S  Z9L D   5      15.883  41.063  10.3440  0.00  0.00     0.000 S
ATOM     92   O  Z9L D   5      15.518  39.918   9.5520  0.00  0.00     0.000 OA
ATOM     93   O  Z9L D   5      15.032  41.529  11.4100  0.00  0.00     0.000 O
ATOM     94   O  Z9L D   5      17.163  40.792  10.9140  0.00  0.00     0.000 OA
ENDBRANCH 79 90
BRANCH 81 95
ATOM     95   C  Z9L D   5      13.918  46.290   8.1970  0.00  0.00     0.000 C
ATOM     96   S  Z9L D   5      14.432  48.145   7.6850  0.00  0.00     0.000 S
ATOM     97   O  Z9L D   5      15.175  46.761   7.7910  0.00  0.00     0.000 O
ATOM     98   O  Z9L D   5      14.193  48.592   9.0330  0.00  0.00     0.000 OA
ATOM     99   O  Z9L D   5      13.421  48.230   6.6860  0.00  0.00     0.000 OA
ATOM    100   O  Z9L D   5      15.751  48.575   7.2900  0.00  0.00     0.000 O
ENDBRANCH 81 95
ENDBRANCH 76 80
ENDBRANCH 60 76
ENDBRANCH 59 63
ENDBRANCH 37 59
ENDBRANCH 36 40
ENDBRANCH 23 36
ENDBRANCH 22 26
ENDBRANCH 1 22
TORSDOF 19
ENDMDL
MODEL 42
REMARK VINA RESULT:      -2.2     20.811     27.439
ROOT
ATOM      1  C1  Z9H D   1      26.311  46.091  18.2730  0.00  0.00     0.000 C
ATOM      2  C2  Z9H D   1      26.951  44.757  18.7260  0.00  0.00     0.000 C
ATOM      3  C3  Z9H D   1      26.295  44.664  20.1380  0.00  0.00     0.000 C
ATOM      4  C4  Z9H D   1      26.420  45.966  21.0320  0.00  0.00     0.000 C
ATOM      5  C5  Z9H D   1      26.100  47.418  20.4940  0.00  0.00     0.000 C
ATOM      6  O5  Z9H D   1      26.441  47.286  19.0910  0.00  0.00     0.000 O
ATOM      7   O  Z9H D   1      26.757  43.520  20.8580  0.00  0.00     0.000 O
ATOM      8   C  Z9H D   1      25.885  42.377  20.8250  0.00  0.00     0.000 C
ATOM      9   O  Z9H D   1      25.578  45.741  22.1670  0.00  0.00     0.000 O
ATOM     10   C  Z9H D   1      26.247  45.306  23.3550  0.00  0.00     0.000 C
ENDROOT
BRANCH 2 11
ATOM     11   O  Z9H D   1      26.261  43.820  17.9400  0.00  0.00     0.000 O
ATOM     12   O  Z9H D   1      27.067  42.757  16.6070  0.00  0.00     0.000 OA
ATOM     13   S  Z9H D   1      27.763  43.676  17.4440  0.00  0.00     0.000 S
ATOM     14   O  Z9H D   1      28.524  43.049  18.4870  0.00  0.00     0.000 OA
ATOM     15   O  Z9H D   1      28.188  44.828  16.6830  0.00  0.00     0.000 O
ENDBRANCH 2 11
BRANCH 5 16
ATOM     16   C  Z9H D   1      26.709  48.668  21.4250  0.00  0.00     0.000 C
ATOM     17   S  Z9H D   1      27.889  49.109  22.9910  0.00  0.00     0.000 S
ATOM     18   O  Z9H D   1      27.948  48.083  21.7470  0.00  0.00     0.000 O
ATOM     19   O  Z9H D   1      26.870  48.823  23.9610  0.00  0.00     0.000 O
ATOM     20   O  Z9H D   1      28.204  50.425  22.5570  0.00  0.00     0.000 OA
ATOM     21   O  Z9H D   1      29.121  48.443  23.2950  0.00  0.00     0.000 OA
ENDBRANCH 5 16
BRANCH 1 22
ATOM     22  O4  GU1 D   2      24.848  46.047  18.0950  0.00  0.00     0.000 O
BRANCH 22 26
ATOM     23  C1  GU1 D   2      21.700  47.362  15.7870  0.00  0.00     0.000 C
ATOM     24  C2  GU1 D   2      22.993  47.117  15.0250  0.00  0.00     0.000 C
ATOM     25  C3  GU1 D   2      23.922  46.296  15.8720  0.00  0.00     0.000 C
ATOM     26  C4  GU1 D   2      24.116  46.933  17.2400  0.00  0.00     0.000 C
ATOM     27  C5  GU1 D   2      22.755  47.233  17.8760  0.00  0.00     0.000 C
ATOM     28  O5  GU1 D   2      21.966  48.042  17.0080  0.00  0.00     0.000 O
ATOM     29   O  GU1 D   2      22.769  46.419  13.8060  0.00  0.00     0.000 O
ATOM     30   C  GU1 D   2      22.678  47.264  12.6670  0.00  0.00     0.000 C
ATOM     31   C  GU1 D   2      25.452  45.000  14.5410  0.00  0.00     0.000 C
ATOM     32   O  GU1 D   2      25.192  46.229  15.2150  0.00  0.00     0.000 O
BRANCH 27 33
ATOM     33   C  GU1 D   2      22.914  47.974  19.1820  0.00  0.00     0.000 C
ATOM     34   O  GU1 D   2      22.616  47.403  20.2110  0.00  0.00     0.000 OA
ATOM     35   O  GU1 D   2      23.337  49.120  19.1990  0.00  0.00     0.000 O
ENDBRANCH 27 33
BRANCH 23 36
ATOM     36  O4  GU6 D   3      20.745  48.324  15.2970  0.00  0.00     0.000 O
BRANCH 36 40
ATOM     37  C1  GU6 D   3      17.751  50.306  13.3460  0.00  0.00     0.000 C
ATOM     38  C2  GU6 D   3      19.089  51.035  13.3290  0.00  0.00     0.000 C
ATOM     39  C3  GU6 D   3      20.172  50.113  13.8250  0.00  0.00     0.000 C
ATOM     40  C4  GU6 D   3      19.762  48.837  14.4210  0.00  0.00     0.000 C
ATOM     41  C5  GU6 D   3      18.460  49.048  15.2620  0.00  0.00     0.000 C
ATOM     42  O5  GU6 D   3      17.472  49.905  14.6790  0.00  0.00     0.000 O
BRANCH 38 43
ATOM     43   O  GU6 D   3      19.396  51.481  12.0220  0.00  0.00     0.000 O
ATOM     44   S  GU6 D   3      18.965  52.912  11.7290  0.00  0.00     0.000 S
ATOM     45   O  GU6 D   3      17.533  52.909  11.3840  0.00  0.00     0.000 OA
ATOM     46   O  GU6 D   3      19.176  53.725  12.9410  0.00  0.00     0.000 O
ATOM     47   O  GU6 D   3      19.775  53.432  10.6310  0.00  0.00     0.000 OA
ENDBRANCH 38 43
BRANCH 39 48
ATOM     48   O  GU6 D   3      21.532  50.359  13.5190  0.00  0.00     0.000 O
ATOM     49   S  GU6 D   3      22.537  51.290  14.1970  0.00  0.00     0.000 S
ATOM     50   O  GU6 D   3      22.626  50.981  15.6290  0.00  0.00     0.000 OA
ATOM     51   O  GU6 D   3      23.796  50.979  13.5070  0.00  0.00     0.000 OA
ATOM     52   O  GU6 D   3      22.097  52.690  14.0070  0.00  0.00     0.000 O
ENDBRANCH 39 48
BRANCH 41 53
ATOM     53   C  GU6 D   3      18.090  48.463  16.5980  0.00  0.00     0.000 C
ATOM     54   O  GU6 D   3      17.031  47.649  16.1630  0.00  0.00     0.000 O
ATOM     55   S  GU6 D   3      16.180  46.872  17.1760  0.00  0.00     0.000 S
ATOM     56   O  GU6 D   3      15.447  47.878  17.9800  0.00  0.00     0.000 O
ATOM     57   O  GU6 D   3      15.242  46.013  16.4390  0.00  0.00     0.000 OA
ATOM     58   O  GU6 D   3      17.109  46.089  18.0210  0.00  0.00     0.000 OA
ENDBRANCH 41 53
BRANCH 37 59
ATOM     59  O4  Z9K D   4      17.396  49.205  12.4840  0.00  0.00     0.000 O
BRANCH 59 63
ATOM     60  C1  Z9K D   4      15.062  47.625   9.7450  0.00  0.00     0.000 C
ATOM     61  C2  Z9K D   4      14.089  48.625  10.4290  0.00  0.00     0.000 C
ATOM     62  C3  Z9K D   4      15.082  49.389  11.4080  0.00  0.00     0.000 C
ATOM     63  C4  Z9K D   4      16.110  48.555  12.2640  0.00  0.00     0.000 C
ATOM     64  C5  Z9K D   4      16.524  47.194  11.6830  0.00  0.00     0.000 C
ATOM     65  O5  Z9K D   4      16.464  47.424  10.2510  0.00  0.00     0.000 O
ATOM     66   O  Z9K D   4      14.407  50.231  12.3590  0.00  0.00     0.000 O
ATOM     67   C  Z9K D   4      14.100  51.530  11.8780  0.00  0.00     0.000 C
BRANCH 61 68
ATOM     68   O  Z9K D   4      13.703  49.555   9.4550  0.00  0.00     0.000 O
ATOM     69   O  Z9K D   4      11.801  49.100  11.1050  0.00  0.00     0.000 OA
ATOM     70   S  Z9K D   4      12.299  48.821   9.7920  0.00  0.00     0.000 S
ATOM     71   O  Z9K D   4      12.270  47.548   9.1400  0.00  0.00     0.000 OA
ATOM     72   O  Z9K D   4      11.902  49.836   8.8700  0.00  0.00     0.000 OA
ENDBRANCH 61 68
BRANCH 64 73
ATOM     73   C  Z9K D   4      17.854  46.715  12.3030  0.00  0.00     0.000 C
ATOM     74   O  Z9K D   4      17.881  46.130  13.4250  0.00  0.00     0.000 O
ATOM     75   O  Z9K D   4      18.953  46.879  11.7190  0.00  0.00     0.000 OA
ENDBRANCH 64 73
BRANCH 60 76
ATOM     76  O4  Z9L D   5      14.849  46.235   9.4430  0.00  0.00     0.000 O
BRANCH 76 80
ATOM     77  C1  Z9L D   5      15.566  43.336   6.7870  0.00  0.00     0.000 C
ATOM     78  C2  Z9L D   5      16.334  42.936   8.1370  0.00  0.00     0.000 C
ATOM     79  C3  Z9L D   5      15.674  43.887   9.3700  0.00  0.00     0.000 C
ATOM     80  C4  Z9L D   5      15.555  45.347   8.6150  0.00  0.00     0.000 C
ATOM     81  C5  Z9L D   5      14.992  45.735   7.1550  0.00  0.00     0.000 C
ATOM     82  O5  Z9L D   5      15.465  44.720   6.2570  0.00  0.00     0.000 O
ATOM     83   C  Z9L D   5      13.437  43.017   5.6650  0.00  0.00     0.000 C
ATOM     84   C  Z9L D   5      13.437  43.017   5.6650  0.00  0.00     0.000 C
BRANCH 78 85
ATOM     85   O  Z9L D   5      16.070  41.596   8.4030  0.00  0.00     0.000 O
ATOM     86   O  Z9L D   5      17.366  40.174   8.3120  0.00  0.00     0.000 OA
ATOM     87   S  Z9L D   5      17.659  41.567   8.1620  0.00  0.00     0.000 S
ATOM     88   O  Z9L D   5      18.430  41.914   9.3300  0.00  0.00     0.000 OA
ATOM     89   O  Z9L D   5      18.099  41.715   6.8180  0.00  0.00     0.000 OA
ENDBRANCH 78 85
BRANCH 79 90
ATOM     90   O  Z9L D   5      16.609  44.140  10.3710  0.00  0.00     0.000 O
ATOM     91   S  Z9L D   5      15.464  43.454  11.2410  0.00  0.00     0.000 S
ATOM     92   O  Z9L D   5      14.949  42.144  10.9420  0.00  0.00     0.000 OA
ATOM     93   O  Z9L D   5      14.614  44.475  11.8010  0.00  0.00     0.000 O
ATOM     94   O  Z9L D   5      16.563  43.282  12.1360  0.00  0.00     0.000 OA
ENDBRANCH 79 90
BRANCH 81 95
ATOM     95   C  Z9L D   5      15.118  47.340   6.6840  0.00  0.00     0.000 C
ATOM     96   S  Z9L D   5      16.246  48.668   5.7200  0.00  0.00     0.000 S
ATOM     97   O  Z9L D   5      16.517  47.423   6.6440  0.00  0.00     0.000 O
ATOM     98   O  Z9L D   5      15.752  49.718   6.5740  0.00  0.00     0.000 OA
ATOM     99   O  Z9L D   5      15.636  48.387   4.4640  0.00  0.00     0.000 OA
ATOM    100   O  Z9L D   5      17.687  48.713   5.7290  0.00  0.00     0.000 O
ENDBRANCH 81 95
ENDBRANCH 76 80
ENDBRANCH 60 76
ENDBRANCH 59 63
ENDBRANCH 37 59
ENDBRANCH 36 40
ENDBRANCH 23 36
ENDBRANCH 22 26
ENDBRANCH 1 22
TORSDOF 19
ENDMDL
MODEL 43
REMARK VINA RESULT:      -2.2     22.168     26.694
ROOT
ATOM      1  C1  Z9H D   1      13.735  54.238  19.2610  0.00  0.00     0.000 C
ATOM      2  C2  Z9H D   1      14.447  55.384  20.0200  0.00  0.00     0.000 C
ATOM      3  C3  Z9H D   1      15.738  54.610  20.4280  0.00  0.00     0.000 C
ATOM      4  C4  Z9H D   1      15.498  53.207  21.1230  0.00  0.00     0.000 C
ATOM      5  C5  Z9H D   1      14.498  52.122  20.5570  0.00  0.00     0.000 C
ATOM      6  O5  Z9H D   1      13.505  52.957  19.9100  0.00  0.00     0.000 O
ATOM      7   O  Z9H D   1      16.606  55.418  21.2260  0.00  0.00     0.000 O
ATOM      8   C  Z9H D   1      17.691  56.041  20.5190  0.00  0.00     0.000 C
ATOM      9   O  Z9H D   1      16.787  52.589  21.2080  0.00  0.00     0.000 O
ATOM     10   C  Z9H D   1      17.438  52.693  22.4780  0.00  0.00     0.000 C
ENDROOT
BRANCH 2 11
ATOM     11   O  Z9H D   1      14.843  56.227  18.9700  0.00  0.00     0.000 O
ATOM     12   O  Z9H D   1      14.135  57.950  18.6700  0.00  0.00     0.000 OA
ATOM     13   S  Z9H D   1      13.778  57.103  19.7580  0.00  0.00     0.000 S
ATOM     14   O  Z9H D   1      14.356  57.495  21.0120  0.00  0.00     0.000 OA
ATOM     15   O  Z9H D   1      12.436  56.597  19.5830  0.00  0.00     0.000 O
ENDBRANCH 2 11
BRANCH 5 16
ATOM     16   C  Z9H D   1      14.057  50.928  21.6440  0.00  0.00     0.000 C
ATOM     17   S  Z9H D   1      13.071  50.568  23.3580  0.00  0.00     0.000 S
ATOM     18   O  Z9H D   1      12.828  51.482  22.0490  0.00  0.00     0.000 O
ATOM     19   O  Z9H D   1      14.167  50.982  24.1860  0.00  0.00     0.000 O
ATOM     20   O  Z9H D   1      12.785  49.207  23.0660  0.00  0.00     0.000 OA
ATOM     21   O  Z9H D   1      11.842  51.201  23.7380  0.00  0.00     0.000 OA
ENDBRANCH 5 16
BRANCH 1 22
ATOM     22  O4  GU1 D   2      14.411  53.797  18.0290  0.00  0.00     0.000 O
BRANCH 22 26
ATOM     23  C1  GU1 D   2      13.794  52.173  14.2940  0.00  0.00     0.000 C
ATOM     24  C2  GU1 D   2      12.628  52.984  14.8390  0.00  0.00     0.000 C
ATOM     25  C3  GU1 D   2      13.101  53.821  15.9930  0.00  0.00     0.000 C
ATOM     26  C4  GU1 D   2      13.806  52.964  17.0340  0.00  0.00     0.000 C
ATOM     27  C5  GU1 D   2      14.889  52.111  16.3660  0.00  0.00     0.000 C
ATOM     28  O5  GU1 D   2      14.331  51.334  15.3090  0.00  0.00     0.000 O
ATOM     29   O  GU1 D   2      12.078  53.853  13.8560  0.00  0.00     0.000 O
ATOM     30   C  GU1 D   2      10.935  53.325  13.1970  0.00  0.00     0.000 C
ATOM     31   C  GU1 D   2      11.776  55.811  16.2710  0.00  0.00     0.000 C
ATOM     32   O  GU1 D   2      11.962  54.437  16.6020  0.00  0.00     0.000 O
BRANCH 27 33
ATOM     33   C  GU1 D   2      15.524  51.162  17.3530  0.00  0.00     0.000 C
ATOM     34   O  GU1 D   2      14.913  50.160  17.6660  0.00  0.00     0.000 OA
ATOM     35   O  GU1 D   2      16.627  51.398  17.8200  0.00  0.00     0.000 O
ENDBRANCH 27 33
BRANCH 23 36
ATOM     36  O4  GU6 D   3      13.553  51.112  13.3480  0.00  0.00     0.000 O
BRANCH 36 40
ATOM     37  C1  GU6 D   3      13.430  47.595  11.2730  0.00  0.00     0.000 C
ATOM     38  C2  GU6 D   3      13.884  48.788  10.4420  0.00  0.00     0.000 C
ATOM     39  C3  GU6 D   3      14.156  49.960  11.3470  0.00  0.00     0.000 C
ATOM     40  C4  GU6 D   3      13.747  49.846  12.7520  0.00  0.00     0.000 C
ATOM     41  C5  GU6 D   3      12.385  49.081  12.8390  0.00  0.00     0.000 C
ATOM     42  O5  GU6 D   3      12.245  47.952  11.9690  0.00  0.00     0.000 O
BRANCH 38 43
ATOM     43   O  GU6 D   3      15.048  48.466   9.7050  0.00  0.00     0.000 O
ATOM     44   S  GU6 D   3      14.784  48.044   8.2650  0.00  0.00     0.000 S
ATOM     45   O  GU6 D   3      14.396  46.623   8.2580  0.00  0.00     0.000 OA
ATOM     46   O  GU6 D   3      13.677  48.856   7.7310  0.00  0.00     0.000 O
ATOM     47   O  GU6 D   3      15.994  48.269   7.4800  0.00  0.00     0.000 OA
ENDBRANCH 38 43
BRANCH 39 48
ATOM     48   O  GU6 D   3      14.979  51.030  10.9230  0.00  0.00     0.000 O
ATOM     49   S  GU6 D   3      14.631  52.265  10.0930  0.00  0.00     0.000 S
ATOM     50   O  GU6 D   3      13.522  52.997  10.7160  0.00  0.00     0.000 OA
ATOM     51   O  GU6 D   3      15.872  53.050  10.1280  0.00  0.00     0.000 OA
ATOM     52   O  GU6 D   3      14.250  51.835   8.7290  0.00  0.00     0.000 O
ENDBRANCH 39 48
BRANCH 41 53
ATOM     53   C  GU6 D   3      11.199  49.357  13.7230  0.00  0.00     0.000 C
ATOM     54   O  GU6 D   3      10.192  49.028  12.8010  0.00  0.00     0.000 O
ATOM     55   S  GU6 D   3       8.714  49.240  13.1530  0.00  0.00     0.000 S
ATOM     56   O  GU6 D   3       8.510  50.702  13.2790  0.00  0.00     0.000 O
ATOM     57   O  GU6 D   3       7.890  48.692  12.0660  0.00  0.00     0.000 OA
ATOM     58   O  GU6 D   3       8.467  48.555  14.4420  0.00  0.00     0.000 OA
ENDBRANCH 41 53
BRANCH 37 59
ATOM     59  O4  Z9K D   4      14.264  46.861  12.1950  0.00  0.00     0.000 O
BRANCH 59 63
ATOM     60  C1  Z9K D   4      16.249  44.214  10.0740  0.00  0.00     0.000 C
ATOM     61  C2  Z9K D   4      14.922  43.452  10.3410  0.00  0.00     0.000 C
ATOM     62  C3  Z9K D   4      14.055  44.589  11.0370  0.00  0.00     0.000 C
ATOM     63  C4  Z9K D   4      14.714  45.476  12.1620  0.00  0.00     0.000 C
ATOM     64  C5  Z9K D   4      16.241  45.627  12.0950  0.00  0.00     0.000 C
ATOM     65  O5  Z9K D   4      16.507  45.571  10.6690  0.00  0.00     0.000 O
ATOM     66   O  Z9K D   4      12.835  44.098  11.6200  0.00  0.00     0.000 O
ATOM     67   C  Z9K D   4      11.746  44.014  10.7150  0.00  0.00     0.000 C
BRANCH 61 68
ATOM     68   O  Z9K D   4      14.328  43.211   9.0950  0.00  0.00     0.000 O
ATOM     69   O  Z9K D   4      13.790  41.338  10.7540  0.00  0.00     0.000 OA
ATOM     70   S  Z9K D   4      14.600  41.708   9.6320  0.00  0.00     0.000 S
ATOM     71   O  Z9K D   4      15.986  41.396   9.4620  0.00  0.00     0.000 OA
ATOM     72   O  Z9K D   4      13.908  41.475   8.4050  0.00  0.00     0.000 OA
ENDBRANCH 61 68
BRANCH 64 73
ATOM     73   C  Z9K D   4      16.705  46.866  12.8880  0.00  0.00     0.000 C
ATOM     74   O  Z9K D   4      17.120  47.906  12.2980  0.00  0.00     0.000 O
ATOM     75   O  Z9K D   4      16.684  46.894  14.1430  0.00  0.00     0.000 OA
ENDBRANCH 64 73
BRANCH 60 76
ATOM     76  O4  Z9L D   5      17.598  43.752  10.2550  0.00  0.00     0.000 O
BRANCH 76 80
ATOM     77  C1  Z9L D   5      21.197  43.429   8.5470  0.00  0.00     0.000 C
ATOM     78  C2  Z9L D   5      21.349  44.452   9.7730  0.00  0.00     0.000 C
ATOM     79  C3  Z9L D   5      19.988  44.239  10.7540  0.00  0.00     0.000 C
ATOM     80  C4  Z9L D   5      18.797  44.117   9.6220  0.00  0.00     0.000 C
ATOM     81  C5  Z9L D   5      18.725  43.262   8.2560  0.00  0.00     0.000 C
ATOM     82  O5  Z9L D   5      20.019  43.370   7.6440  0.00  0.00     0.000 O
ATOM     83   C  Z9L D   5      21.400  41.066   8.0290  0.00  0.00     0.000 C
ATOM     84   C  Z9L D   5      21.400  41.066   8.0290  0.00  0.00     0.000 C
BRANCH 78 85
ATOM     85   O  Z9L D   5      22.488  44.100  10.4900  0.00  0.00     0.000 O
ATOM     86   O  Z9L D   5      24.112  45.134  10.5650  0.00  0.00     0.000 OA
ATOM     87   S  Z9L D   5      22.897  45.552   9.9330  0.00  0.00     0.000 S
ATOM     88   O  Z9L D   5      22.410  46.642  10.7420  0.00  0.00     0.000 OA
ATOM     89   O  Z9L D   5      23.205  45.635   8.5470  0.00  0.00     0.000 OA
ENDBRANCH 78 85
BRANCH 79 90
ATOM     90   O  Z9L D   5      19.653  45.416  11.4190  0.00  0.00     0.000 O
ATOM     91   S  Z9L D   5      19.925  44.470  12.6710  0.00  0.00     0.000 S
ATOM     92   O  Z9L D   5      21.172  43.775  12.8560  0.00  0.00     0.000 OA
ATOM     93   O  Z9L D   5      18.680  43.888  13.1090  0.00  0.00     0.000 O
ATOM     94   O  Z9L D   5      20.048  45.738  13.3150  0.00  0.00     0.000 OA
ENDBRANCH 79 90
BRANCH 81 95
ATOM     95   C  Z9L D   5      17.366  43.463   7.2940  0.00  0.00     0.000 C
ATOM     96   S  Z9L D   5      16.705  44.096   5.5250  0.00  0.00     0.000 S
ATOM     97   O  Z9L D   5      17.822  44.552   6.5370  0.00  0.00     0.000 O
ATOM     98   O  Z9L D   5      15.440  44.450   6.1170  0.00  0.00     0.000 OA
ATOM     99   O  Z9L D   5      16.907  42.827   4.9110  0.00  0.00     0.000 OA
ATOM    100   O  Z9L D   5      17.204  45.238   4.8000  0.00  0.00     0.000 O
ENDBRANCH 81 95
ENDBRANCH 76 80
ENDBRANCH 60 76
ENDBRANCH 59 63
ENDBRANCH 37 59
ENDBRANCH 36 40
ENDBRANCH 23 36
ENDBRANCH 22 26
ENDBRANCH 1 22
TORSDOF 19
ENDMDL
MODEL 44
REMARK VINA RESULT:      -1.9     23.190     27.884
ROOT
ATOM      1  C1  Z9H D   1      14.100  54.115  19.5940  0.00  0.00     0.000 C
ATOM      2  C2  Z9H D   1      14.704  55.175  20.5460  0.00  0.00     0.000 C
ATOM      3  C3  Z9H D   1      16.045  54.447  20.8670  0.00  0.00     0.000 C
ATOM      4  C4  Z9H D   1      15.906  52.936  21.3230  0.00  0.00     0.000 C
ATOM      5  C5  Z9H D   1      15.007  51.883  20.5610  0.00  0.00     0.000 C
ATOM      6  O5  Z9H D   1      13.962  52.732  20.0240  0.00  0.00     0.000 O
ATOM      7   O  Z9H D   1      16.830  55.180  21.8100  0.00  0.00     0.000 O
ATOM      8   C  Z9H D   1      17.874  55.990  21.2450  0.00  0.00     0.000 C
ATOM      9   O  Z9H D   1      17.238  52.413  21.3500  0.00  0.00     0.000 O
ATOM     10   C  Z9H D   1      17.855  52.362  22.6400  0.00  0.00     0.000 C
ENDROOT
BRANCH 2 11
ATOM     11   O  Z9H D   1      15.050  56.204  19.6560  0.00  0.00     0.000 O
ATOM     12   O  Z9H D   1      14.241  57.908  19.6400  0.00  0.00     0.000 OA
ATOM     13   S  Z9H D   1      13.933  56.872  20.5670  0.00  0.00     0.000 S
ATOM     14   O  Z9H D   1      14.485  57.082  21.8760  0.00  0.00     0.000 OA
ATOM     15   O  Z9H D   1      12.624  56.324  20.2950  0.00  0.00     0.000 O
ENDBRANCH 2 11
BRANCH 5 16
ATOM     16   C  Z9H D   1      14.643  50.500  21.4310  0.00  0.00     0.000 C
ATOM     17   S  Z9H D   1      13.478  49.749  22.8860  0.00  0.00     0.000 S
ATOM     18   O  Z9H D   1      13.277  50.761  21.6440  0.00  0.00     0.000 O
ATOM     19   O  Z9H D   1      14.310  50.250  23.9420  0.00  0.00     0.000 O
ATOM     20   O  Z9H D   1      13.530  48.407  22.4220  0.00  0.00     0.000 OA
ATOM     21   O  Z9H D   1      12.099  50.091  23.0830  0.00  0.00     0.000 OA
ENDBRANCH 5 16
BRANCH 1 22
ATOM     22  O4  GU1 D   2      14.833  53.930  18.3290  0.00  0.00     0.000 O
BRANCH 22 26
ATOM     23  C1  GU1 D   2      14.455  53.259  14.2830  0.00  0.00     0.000 C
ATOM     24  C2  GU1 D   2      13.365  54.128  14.8910  0.00  0.00     0.000 C
ATOM     25  C3  GU1 D   2      13.809  54.609  16.2430  0.00  0.00     0.000 C
ATOM     26  C4  GU1 D   2      14.240  53.443  17.1200  0.00  0.00     0.000 C
ATOM     27  C5  GU1 D   2      15.258  52.574  16.3760  0.00  0.00     0.000 C
ATOM     28  O5  GU1 D   2      14.728  52.145  15.1250  0.00  0.00     0.000 O
ATOM     29   O  GU1 D   2      13.080  55.266  14.0860  0.00  0.00     0.000 O
ATOM     30   C  GU1 D   2      11.964  55.095  13.2250  0.00  0.00     0.000 C
ATOM     31   C  GU1 D   2      12.773  56.696  16.8460  0.00  0.00     0.000 C
ATOM     32   O  GU1 D   2      12.708  55.272  16.8710  0.00  0.00     0.000 O
BRANCH 27 33
ATOM     33   C  GU1 D   2      15.614  51.343  17.1750  0.00  0.00     0.000 C
ATOM     34   O  GU1 D   2      14.755  50.503  17.3550  0.00  0.00     0.000 OA
ATOM     35   O  GU1 D   2      16.740  51.197  17.6230  0.00  0.00     0.000 O
ENDBRANCH 27 33
BRANCH 23 36
ATOM     36  O4  GU6 D   3      14.180  52.478  13.1030  0.00  0.00     0.000 O
BRANCH 36 40
ATOM     37  C1  GU6 D   3      14.153  49.776  10.0380  0.00  0.00     0.000 C
ATOM     38  C2  GU6 D   3      15.086  50.959   9.8120  0.00  0.00     0.000 C
ATOM     39  C3  GU6 D   3      15.230  51.740  11.0910  0.00  0.00     0.000 C
ATOM     40  C4  GU6 D   3      14.335  51.400  12.2020  0.00  0.00     0.000 C
ATOM     41  C5  GU6 D   3      12.914  51.058  11.6430  0.00  0.00     0.000 C
ATOM     42  O5  GU6 D   3      12.887  50.270  10.4470  0.00  0.00     0.000 O
BRANCH 38 43
ATOM     43   O  GU6 D   3      16.355  50.515   9.3720  0.00  0.00     0.000 O
ATOM     44   S  GU6 D   3      16.564  50.600   7.8650  0.00  0.00     0.000 S
ATOM     45   O  GU6 D   3      15.942  49.420   7.2390  0.00  0.00     0.000 OA
ATOM     46   O  GU6 D   3      15.908  51.822   7.3670  0.00  0.00     0.000 O
ATOM     47   O  GU6 D   3      17.996  50.654   7.5910  0.00  0.00     0.000 OA
ENDBRANCH 38 43
BRANCH 39 48
ATOM     48   O  GU6 D   3      16.333  52.603  11.2960  0.00  0.00     0.000 O
ATOM     49   S  GU6 D   3      16.544  54.049  10.8470  0.00  0.00     0.000 S
ATOM     50   O  GU6 D   3      15.440  54.891  11.3220  0.00  0.00     0.000 OA
ATOM     51   O  GU6 D   3      17.810  54.417  11.4940  0.00  0.00     0.000 OA
ATOM     52   O  GU6 D   3      16.611  54.087   9.3690  0.00  0.00     0.000 O
ENDBRANCH 39 48
BRANCH 41 53
ATOM     53   C  GU6 D   3      11.564  51.429  12.1940  0.00  0.00     0.000 C
ATOM     54   O  GU6 D   3      10.881  51.535  10.9720  0.00  0.00     0.000 O
ATOM     55   S  GU6 D   3       9.425  52.019  10.9330  0.00  0.00     0.000 S
ATOM     56   O  GU6 D   3       9.434  53.434  11.3710  0.00  0.00     0.000 O
ATOM     57   O  GU6 D   3       8.931  51.905   9.5530  0.00  0.00     0.000 OA
ATOM     58   O  GU6 D   3       8.657  51.174  11.8750  0.00  0.00     0.000 OA
ENDBRANCH 41 53
BRANCH 37 59
ATOM     59  O4  Z9K D   4      14.453  48.630  10.8620  0.00  0.00     0.000 O
BRANCH 59 63
ATOM     60  C1  Z9K D   4      16.945  46.375   8.8240  0.00  0.00     0.000 C
ATOM     61  C2  Z9K D   4      15.577  45.888   8.2710  0.00  0.00     0.000 C
ATOM     62  C3  Z9K D   4      14.587  46.926   8.9580  0.00  0.00     0.000 C
ATOM     63  C4  Z9K D   4      14.763  47.255  10.4900  0.00  0.00     0.000 C
ATOM     64  C5  Z9K D   4      16.177  47.070  11.0620  0.00  0.00     0.000 C
ATOM     65  O5  Z9K D   4      17.027  47.391   9.9290  0.00  0.00     0.000 O
ATOM     66   O  Z9K D   4      13.200  46.571   8.8130  0.00  0.00     0.000 O
ATOM     67   C  Z9K D   4      12.605  47.014   7.6050  0.00  0.00     0.000 C
BRANCH 61 68
ATOM     68   O  Z9K D   4      15.561  46.179   6.9000  0.00  0.00     0.000 O
ATOM     69   O  Z9K D   4      14.223  44.058   7.4120  0.00  0.00     0.000 OA
ATOM     70   S  Z9K D   4      15.462  44.562   6.9010  0.00  0.00     0.000 S
ATOM     71   O  Z9K D   4      16.758  44.016   7.1620  0.00  0.00     0.000 OA
ATOM     72   O  Z9K D   4      15.350  44.876   5.5130  0.00  0.00     0.000 OA
ENDBRANCH 61 68
BRANCH 64 73
ATOM     73   C  Z9K D   4      16.349  47.871  12.3700  0.00  0.00     0.000 C
ATOM     74   O  Z9K D   4      17.028  48.938  12.4000  0.00  0.00     0.000 O
ATOM     75   O  Z9K D   4      15.820  47.501  13.4460  0.00  0.00     0.000 OA
ENDBRANCH 64 73
BRANCH 60 76
ATOM     76  O4  Z9L D   5      18.043  45.586   9.3130  0.00  0.00     0.000 O
BRANCH 76 80
ATOM     77  C1  Z9L D   5      22.002  45.059   9.1800  0.00  0.00     0.000 C
ATOM     78  C2  Z9L D   5      21.643  45.547  10.6650  0.00  0.00     0.000 C
ATOM     79  C3  Z9L D   5      19.977  45.327  10.8590  0.00  0.00     0.000 C
ATOM     80  C4  Z9L D   5      19.416  45.864   9.4060  0.00  0.00     0.000 C
ATOM     81  C5  Z9L D   5      19.919  45.559   7.9040  0.00  0.00     0.000 C
ATOM     82  O5  Z9L D   5      21.354  45.574   7.9470  0.00  0.00     0.000 O
ATOM     83   C  Z9L D   5      22.290  43.028   7.8820  0.00  0.00     0.000 C
ATOM     84   C  Z9L D   5      22.290  43.028   7.8820  0.00  0.00     0.000 C
BRANCH 78 85
ATOM     85   O  Z9L D   5      22.319  44.728  11.5640  0.00  0.00     0.000 O
ATOM     86   O  Z9L D   5      23.787  45.284  12.6800  0.00  0.00     0.000 OA
ATOM     87   S  Z9L D   5      23.009  46.151  11.8480  0.00  0.00     0.000 S
ATOM     88   O  Z9L D   5      22.269  46.983  12.7650  0.00  0.00     0.000 OA
ATOM     89   O  Z9L D   5      23.911  46.627  10.8570  0.00  0.00     0.000 OA
ENDBRANCH 78 85
BRANCH 79 90
ATOM     90   O  Z9L D   5      19.444  46.253  11.7500  0.00  0.00     0.000 O
ATOM     91   S  Z9L D   5      19.056  44.904  12.5030  0.00  0.00     0.000 S
ATOM     92   O  Z9L D   5      20.037  43.917  12.8690  0.00  0.00     0.000 OA
ATOM     93   O  Z9L D   5      17.718  44.518  12.1300  0.00  0.00     0.000 O
ATOM     94   O  Z9L D   5      18.942  45.814  13.5970  0.00  0.00     0.000 OA
ENDBRANCH 79 90
BRANCH 81 95
ATOM     95   C  Z9L D   5      19.149  46.373   6.6560  0.00  0.00     0.000 C
ATOM     96   S  Z9L D   5      19.342  47.803   5.2830  0.00  0.00     0.000 S
ATOM     97   O  Z9L D   5      19.835  47.591   6.7630  0.00  0.00     0.000 O
ATOM     98   O  Z9L D   5      17.928  48.069   5.3510  0.00  0.00     0.000 OA
ATOM     99   O  Z9L D   5      19.882  46.907   4.3160  0.00  0.00     0.000 OA
ATOM    100   O  Z9L D   5      20.050  49.047   5.4570  0.00  0.00     0.000 O
ENDBRANCH 81 95
ENDBRANCH 76 80
ENDBRANCH 60 76
ENDBRANCH 59 63
ENDBRANCH 37 59
ENDBRANCH 36 40
ENDBRANCH 23 36
ENDBRANCH 22 26
ENDBRANCH 1 22
TORSDOF 19
ENDMDL
MODEL 45
REMARK VINA RESULT:      -1.8     15.900     25.341
ROOT
ATOM      1  C1  Z9H D   1      36.710  41.825  15.7320  0.00  0.00     0.000 C
ATOM      2  C2  Z9H D   1      37.944  42.695  16.0690  0.00  0.00     0.000 C
ATOM      3  C3  Z9H D   1      38.767  41.622  16.8460  0.00  0.00     0.000 C
ATOM      4  C4  Z9H D   1      37.980  40.858  17.9890  0.00  0.00     0.000 C
ATOM      5  C5  Z9H D   1      36.539  40.241  17.7820  0.00  0.00     0.000 C
ATOM      6  O5  Z9H D   1      35.983  41.137  16.7880  0.00  0.00     0.000 O
ATOM      7   O  Z9H D   1      39.986  42.164  17.3590  0.00  0.00     0.000 O
ATOM      8   C  Z9H D   1      41.157  41.902  16.5680  0.00  0.00     0.000 C
ATOM      9   O  Z9H D   1      38.839  39.794  18.4090  0.00  0.00     0.000 O
ATOM     10   C  Z9H D   1      39.592  40.041  19.6010  0.00  0.00     0.000 C
ENDROOT
BRANCH 2 11
ATOM     11   O  Z9H D   1      38.574  42.806  14.8200  0.00  0.00     0.000 O
ATOM     12   O  Z9H D   1      38.768  44.424  13.8700  0.00  0.00     0.000 OA
ATOM     13   S  Z9H D   1      38.174  44.305  15.1590  0.00  0.00     0.000 S
ATOM     14   O  Z9H D   1      39.013  44.765  16.2290  0.00  0.00     0.000 OA
ATOM     15   O  Z9H D   1      36.746  44.508  15.0770  0.00  0.00     0.000 O
ENDBRANCH 2 11
BRANCH 5 16
ATOM     16   C  Z9H D   1      35.712  39.883  19.1920  0.00  0.00     0.000 C
ATOM     17   S  Z9H D   1      35.750  40.059  21.1940  0.00  0.00     0.000 S
ATOM     18   O  Z9H D   1      36.107  41.009  19.9380  0.00  0.00     0.000 O
ATOM     19   O  Z9H D   1      36.629  38.939  21.3710  0.00  0.00     0.000 O
ATOM     20   O  Z9H D   1      34.341  39.979  21.3630  0.00  0.00     0.000 OA
ATOM     21   O  Z9H D   1      36.210  41.219  21.9000  0.00  0.00     0.000 OA
ENDBRANCH 5 16
BRANCH 1 22
ATOM     22  O4  GU1 D   2      36.977  40.702  14.8160  0.00  0.00     0.000 O
BRANCH 22 26
ATOM     23  C1  GU1 D   2      35.481  38.500  11.6720  0.00  0.00     0.000 C
ATOM     24  C2  GU1 D   2      35.093  39.971  11.6640  0.00  0.00     0.000 C
ATOM     25  C3  GU1 D   2      35.986  40.725  12.6060  0.00  0.00     0.000 C
ATOM     26  C4  GU1 D   2      35.983  40.087  13.9870  0.00  0.00     0.000 C
ATOM     27  C5  GU1 D   2      36.281  38.589  13.8740  0.00  0.00     0.000 C
ATOM     28  O5  GU1 D   2      35.360  37.963  12.9840  0.00  0.00     0.000 O
ATOM     29   O  GU1 D   2      35.223  40.548  10.3700  0.00  0.00     0.000 O
ATOM     30   C  GU1 D   2      34.007  40.594   9.6370  0.00  0.00     0.000 C
ATOM     31   C  GU1 D   2      36.224  43.035  11.9720  0.00  0.00     0.000 C
ATOM     32   O  GU1 D   2      35.495  42.064  12.7200  0.00  0.00     0.000 O
BRANCH 27 33
ATOM     33   C  GU1 D   2      36.166  37.905  15.2150  0.00  0.00     0.000 C
ATOM     34   O  GU1 D   2      35.070  37.828  15.7320  0.00  0.00     0.000 OA
ATOM     35   O  GU1 D   2      37.154  37.440  15.7620  0.00  0.00     0.000 O
ENDBRANCH 27 33
BRANCH 23 36
ATOM     36  O4  GU6 D   3      34.624  37.525  11.0440  0.00  0.00     0.000 O
BRANCH 36 40
ATOM     37  C1  GU6 D   3      33.300  35.147   7.9970  0.00  0.00     0.000 C
ATOM     38  C2  GU6 D   3      32.940  34.632   9.3850  0.00  0.00     0.000 C
ATOM     39  C3  GU6 D   3      33.226  35.699  10.4090  0.00  0.00     0.000 C
ATOM     40  C4  GU6 D   3      33.968  36.885   9.9680  0.00  0.00     0.000 C
ATOM     41  C5  GU6 D   3      35.070  36.461   8.9420  0.00  0.00     0.000 C
ATOM     42  O5  GU6 D   3      34.681  35.474   7.9800  0.00  0.00     0.000 O
BRANCH 38 43
ATOM     43   O  GU6 D   3      31.575  34.264   9.4400  0.00  0.00     0.000 O
ATOM     44   S  GU6 D   3      31.331  32.761   9.4990  0.00  0.00     0.000 S
ATOM     45   O  GU6 D   3      31.414  32.220   8.1310  0.00  0.00     0.000 OA
ATOM     46   O  GU6 D   3      32.378  32.147  10.3340  0.00  0.00     0.000 O
ATOM     47   O  GU6 D   3      30.017  32.521  10.0870  0.00  0.00     0.000 OA
ENDBRANCH 38 43
BRANCH 39 48
ATOM     48   O  GU6 D   3      32.607  35.670  11.6810  0.00  0.00     0.000 O
ATOM     49   S  GU6 D   3      31.380  36.424  12.1910  0.00  0.00     0.000 S
ATOM     50   O  GU6 D   3      30.230  36.170  11.3160  0.00  0.00     0.000 OA
ATOM     51   O  GU6 D   3      31.168  35.850  13.5270  0.00  0.00     0.000 OA
ATOM     52   O  GU6 D   3      31.685  37.872  12.2200  0.00  0.00     0.000 O
ENDBRANCH 39 48
BRANCH 41 53
ATOM     53   C  GU6 D   3      36.485  36.957   8.8120  0.00  0.00     0.000 C
ATOM     54   O  GU6 D   3      36.200  38.193   8.2100  0.00  0.00     0.000 O
ATOM     55   S  GU6 D   3      37.336  39.108   7.7350  0.00  0.00     0.000 S
ATOM     56   O  GU6 D   3      38.015  38.405   6.6220  0.00  0.00     0.000 O
ATOM     57   O  GU6 D   3      36.753  40.376   7.2710  0.00  0.00     0.000 OA
ATOM     58   O  GU6 D   3      38.253  39.300   8.8810  0.00  0.00     0.000 OA
ENDBRANCH 41 53
BRANCH 37 59
ATOM     59  O4  Z9K D   4      32.601  36.198   7.2960  0.00  0.00     0.000 O
BRANCH 59 63
ATOM     60  C1  Z9K D   4      29.058  35.018   6.0710  0.00  0.00     0.000 C
ATOM     61  C2  Z9K D   4      29.980  34.354   5.0100  0.00  0.00     0.000 C
ATOM     62  C3  Z9K D   4      31.415  34.678   5.6130  0.00  0.00     0.000 C
ATOM     63  C4  Z9K D   4      31.715  36.133   6.1400  0.00  0.00     0.000 C
ATOM     64  C5  Z9K D   4      30.499  36.944   6.6130  0.00  0.00     0.000 C
ATOM     65  O5  Z9K D   4      29.614  35.920   7.1380  0.00  0.00     0.000 O
ATOM     66   O  Z9K D   4      32.493  34.384   4.7060  0.00  0.00     0.000 O
ATOM     67   C  Z9K D   4      32.935  33.037   4.7380  0.00  0.00     0.000 C
BRANCH 61 68
ATOM     68   O  Z9K D   4      29.808  32.968   5.1270  0.00  0.00     0.000 O
ATOM     69   O  Z9K D   4      30.330  33.637   2.7120  0.00  0.00     0.000 OA
ATOM     70   S  Z9K D   4      29.292  33.244   3.6170  0.00  0.00     0.000 S
ATOM     71   O  Z9K D   4      27.974  33.799   3.6690  0.00  0.00     0.000 OA
ATOM     72   O  Z9K D   4      29.212  31.822   3.7140  0.00  0.00     0.000 OA
ENDBRANCH 61 68
BRANCH 64 73
ATOM     73   C  Z9K D   4      30.935  38.096   7.5430  0.00  0.00     0.000 C
ATOM     74   O  Z9K D   4      30.735  38.042   8.7910  0.00  0.00     0.000 O
ATOM     75   O  Z9K D   4      31.507  39.122   7.1010  0.00  0.00     0.000 OA
ENDBRANCH 64 73
BRANCH 60 76
ATOM     76  O4  Z9L D   5      27.875  35.808   5.8590  0.00  0.00     0.000 O
BRANCH 76 80
ATOM     77  C1  Z9L D   5      24.162  36.508   7.1580  0.00  0.00     0.000 C
ATOM     78  C2  Z9L D   5      25.009  37.845   7.4160  0.00  0.00     0.000 C
ATOM     79  C3  Z9L D   5      26.408  37.723   6.4720  0.00  0.00     0.000 C
ATOM     80  C4  Z9L D   5      26.819  36.147   6.7200  0.00  0.00     0.000 C
ATOM     81  C5  Z9L D   5      25.923  34.806   6.6900  0.00  0.00     0.000 C
ATOM     82  O5  Z9L D   5      24.688  35.132   7.3440  0.00  0.00     0.000 O
ATOM     83   C  Z9L D   5      22.740  35.472   5.4850  0.00  0.00     0.000 C
ATOM     84   C  Z9L D   5      22.740  35.472   5.4850  0.00  0.00     0.000 C
BRANCH 78 85
ATOM     85   O  Z9L D   5      24.254  38.927   6.9740  0.00  0.00     0.000 O
ATOM     86   O  Z9L D   5      23.455  40.258   8.1140  0.00  0.00     0.000 OA
ATOM     87   S  Z9L D   5      24.335  39.218   8.5520  0.00  0.00     0.000 S
ATOM     88   O  Z9L D   5      25.542  39.895   8.9580  0.00  0.00     0.000 OA
ATOM     89   O  Z9L D   5      23.542  38.386   9.3910  0.00  0.00     0.000 OA
ENDBRANCH 78 85
BRANCH 79 90
ATOM     90   O  Z9L D   5      27.472  38.408   7.0510  0.00  0.00     0.000 O
ATOM     91   S  Z9L D   5      27.417  39.145   5.6410  0.00  0.00     0.000 S
ATOM     92   O  Z9L D   5      26.225  39.786   5.1530  0.00  0.00     0.000 OA
ATOM     93   O  Z9L D   5      28.341  38.510   4.7340  0.00  0.00     0.000 O
ATOM     94   O  Z9L D   5      28.152  40.121   6.3770  0.00  0.00     0.000 OA
ENDBRANCH 79 90
BRANCH 81 95
ATOM     95   C  Z9L D   5      26.683  33.365   7.0890  0.00  0.00     0.000 C
ATOM     96   S  Z9L D   5      26.461  31.389   7.2080  0.00  0.00     0.000 S
ATOM     97   O  Z9L D   5      25.542  32.641   7.4660  0.00  0.00     0.000 O
ATOM     98   O  Z9L D   5      27.410  31.341   8.2910  0.00  0.00     0.000 OA
ATOM     99   O  Z9L D   5      26.867  31.186   5.8580  0.00  0.00     0.000 OA
ATOM    100   O  Z9L D   5      25.264  30.700   7.6210  0.00  0.00     0.000 O
ENDBRANCH 81 95
ENDBRANCH 76 80
ENDBRANCH 60 76
ENDBRANCH 59 63
ENDBRANCH 37 59
ENDBRANCH 36 40
ENDBRANCH 23 36
ENDBRANCH 22 26
ENDBRANCH 1 22
TORSDOF 19
ENDMDL
MODEL 46
REMARK VINA RESULT:      -1.5     22.384     26.759
ROOT
ATOM      1  C1  Z9H D   1      14.135  54.572  21.1210  0.00  0.00     0.000 C
ATOM      2  C2  Z9H D   1      13.860  56.064  21.4260  0.00  0.00     0.000 C
ATOM      3  C3  Z9H D   1      14.643  56.683  20.2280  0.00  0.00     0.000 C
ATOM      4  C4  Z9H D   1      16.125  56.155  20.0400  0.00  0.00     0.000 C
ATOM      5  C5  Z9H D   1      16.507  54.621  20.0680  0.00  0.00     0.000 C
ATOM      6  O5  Z9H D   1      15.498  54.091  20.9640  0.00  0.00     0.000 O
ATOM      7   O  Z9H D   1      14.625  58.111  20.2690  0.00  0.00     0.000 O
ATOM      8   C  Z9H D   1      13.645  58.739  19.4270  0.00  0.00     0.000 C
ATOM      9   O  Z9H D   1      16.568  56.678  18.7830  0.00  0.00     0.000 O
ATOM     10   C  Z9H D   1      17.386  57.850  18.8550  0.00  0.00     0.000 C
ENDROOT
BRANCH 2 11
ATOM     11   O  Z9H D   1      12.505  56.188  21.0800  0.00  0.00     0.000 O
ATOM     12   O  Z9H D   1      11.121  56.519  22.3190  0.00  0.00     0.000 OA
ATOM     13   S  Z9H D   1      12.505  56.438  22.6490  0.00  0.00     0.000 S
ATOM     14   O  Z9H D   1      13.115  57.712  22.9020  0.00  0.00     0.000 OA
ATOM     15   O  Z9H D   1      12.778  55.224  23.3840  0.00  0.00     0.000 O
ENDBRANCH 2 11
BRANCH 5 16
ATOM     16   C  Z9H D   1      18.133  54.299  20.2980  0.00  0.00     0.000 C
ATOM     17   S  Z9H D   1      19.543  53.943  21.6850  0.00  0.00     0.000 S
ATOM     18   O  Z9H D   1      18.009  53.499  21.4490  0.00  0.00     0.000 O
ATOM     19   O  Z9H D   1      19.728  55.332  21.9920  0.00  0.00     0.000 O
ATOM     20   O  Z9H D   1      20.403  53.215  20.8190  0.00  0.00     0.000 OA
ATOM     21   O  Z9H D   1      19.343  53.155  22.8660  0.00  0.00     0.000 OA
ENDBRANCH 5 16
BRANCH 1 22
ATOM     22  O4  GU1 D   2      13.530  54.073  19.8740  0.00  0.00     0.000 O
BRANCH 22 26
ATOM     23  C1  GU1 D   2      11.894  50.760  18.0510  0.00  0.00     0.000 C
ATOM     24  C2  GU1 D   2      11.715  50.813  19.5610  0.00  0.00     0.000 C
ATOM     25  C3  GU1 D   2      11.997  52.206  20.0470  0.00  0.00     0.000 C
ATOM     26  C4  GU1 D   2      13.358  52.685  19.5630  0.00  0.00     0.000 C
ATOM     27  C5  GU1 D   2      13.474  52.492  18.0480  0.00  0.00     0.000 C
ATOM     28  O5  GU1 D   2      13.220  51.135  17.6970  0.00  0.00     0.000 O
ATOM     29   O  GU1 D   2      10.392  50.466  19.9530  0.00  0.00     0.000 O
ATOM     30   C  GU1 D   2      10.247  49.108  20.3440  0.00  0.00     0.000 C
ATOM     31   C  GU1 D   2      10.815  52.711  22.0820  0.00  0.00     0.000 C
ATOM     32   O  GU1 D   2      11.999  52.194  21.4780  0.00  0.00     0.000 O
BRANCH 27 33
ATOM     33   C  GU1 D   2      14.857  52.847  17.5560  0.00  0.00     0.000 C
ATOM     34   O  GU1 D   2      15.763  52.069  17.7720  0.00  0.00     0.000 OA
ATOM     35   O  GU1 D   2      15.052  53.890  16.9520  0.00  0.00     0.000 O
ENDBRANCH 27 33
BRANCH 23 36
ATOM     36  O4  GU6 D   3      11.922  49.489  17.3730  0.00  0.00     0.000 O
BRANCH 36 40
ATOM     37  C1  GU6 D   3      12.873  46.222  15.1110  0.00  0.00     0.000 C
ATOM     38  C2  GU6 D   3      11.444  46.713  14.9170  0.00  0.00     0.000 C
ATOM     39  C3  GU6 D   3      11.280  48.059  15.5730  0.00  0.00     0.000 C
ATOM     40  C4  GU6 D   3      12.371  48.538  16.4290  0.00  0.00     0.000 C
ATOM     41  C5  GU6 D   3      12.971  47.337  17.2330  0.00  0.00     0.000 C
ATOM     42  O5  GU6 D   3      13.130  46.115  16.5030  0.00  0.00     0.000 O
BRANCH 38 43
ATOM     43   O  GU6 D   3      11.132  46.805  13.5410  0.00  0.00     0.000 O
ATOM     44   S  GU6 D   3      10.446  45.573  12.9670  0.00  0.00     0.000 S
ATOM     45   O  GU6 D   3      11.474  44.564  12.6590  0.00  0.00     0.000 OA
ATOM     46   O  GU6 D   3       9.520  45.035  13.9810  0.00  0.00     0.000 O
ATOM     47   O  GU6 D   3       9.706  45.961  11.7700  0.00  0.00     0.000 OA
ENDBRANCH 38 43
BRANCH 39 48
ATOM     48   O  GU6 D   3      10.228  48.927  15.1970  0.00  0.00     0.000 O
ATOM     49   S  GU6 D   3       8.767  48.948  15.6430  0.00  0.00     0.000 S
ATOM     50   O  GU6 D   3       8.686  49.031  17.1060  0.00  0.00     0.000 OA
ATOM     51   O  GU6 D   3       8.243  50.167  15.0120  0.00  0.00     0.000 OA
ATOM     52   O  GU6 D   3       8.103  47.713  15.1690  0.00  0.00     0.000 O
ENDBRANCH 39 48
BRANCH 41 53
ATOM     53   C  GU6 D   3      13.421  47.288  18.6680  0.00  0.00     0.000 C
ATOM     54   O  GU6 D   3      13.034  45.967  18.9440  0.00  0.00     0.000 O
ATOM     55   S  GU6 D   3      13.164  45.398  20.3630  0.00  0.00     0.000 S
ATOM     56   O  GU6 D   3      12.213  46.151  21.2140  0.00  0.00     0.000 O
ATOM     57   O  GU6 D   3      12.814  43.971  20.3300  0.00  0.00     0.000 OA
ATOM     58   O  GU6 D   3      14.560  45.622  20.8000  0.00  0.00     0.000 OA
ENDBRANCH 41 53
BRANCH 37 59
ATOM     59  O4  Z9K D   4      14.042  46.811  14.5030  0.00  0.00     0.000 O
BRANCH 59 63
ATOM     60  C1  Z9K D   4      15.815  43.691  12.8990  0.00  0.00     0.000 C
ATOM     61  C2  Z9K D   4      16.531  43.770  14.2760  0.00  0.00     0.000 C
ATOM     62  C3  Z9K D   4      15.686  44.912  14.9900  0.00  0.00     0.000 C
ATOM     63  C4  Z9K D   4      15.339  46.225  14.1890  0.00  0.00     0.000 C
ATOM     64  C5  Z9K D   4      15.276  46.086  12.6610  0.00  0.00     0.000 C
ATOM     65  O5  Z9K D   4      14.805  44.724  12.4800  0.00  0.00     0.000 O
ATOM     66   O  Z9K D   4      16.279  45.374  16.2180  0.00  0.00     0.000 O
ATOM     67   C  Z9K D   4      15.941  44.601  17.3580  0.00  0.00     0.000 C
BRANCH 61 68
ATOM     68   O  Z9K D   4      16.241  42.581  14.9580  0.00  0.00     0.000 O
ATOM     69   O  Z9K D   4      18.550  43.477  15.6000  0.00  0.00     0.000 OA
ATOM     70   S  Z9K D   4      17.853  42.502  14.8180  0.00  0.00     0.000 S
ATOM     71   O  Z9K D   4      18.185  42.107  13.4840  0.00  0.00     0.000 OA
ATOM     72   O  Z9K D   4      17.555  41.343  15.5960  0.00  0.00     0.000 OA
ENDBRANCH 61 68
BRANCH 64 73
ATOM     73   C  Z9K D   4      14.463  47.241  12.0380  0.00  0.00     0.000 C
ATOM     74   O  Z9K D   4      13.407  47.018  11.3780  0.00  0.00     0.000 O
ATOM     75   O  Z9K D   4      14.813  48.439  12.1650  0.00  0.00     0.000 OA
ENDBRANCH 64 73
BRANCH 60 76
ATOM     76  O4  Z9L D   5      16.401  43.569  11.5920  0.00  0.00     0.000 O
BRANCH 76 80
ATOM     77  C1  Z9L D   5      16.243  41.568   8.1360  0.00  0.00     0.000 C
ATOM     78  C2  Z9L D   5      15.845  43.089   7.8170  0.00  0.00     0.000 C
ATOM     79  C3  Z9L D   5      16.349  44.011   9.1420  0.00  0.00     0.000 C
ATOM     80  C4  Z9L D   5      15.894  43.040  10.3930  0.00  0.00     0.000 C
ATOM     81  C5  Z9L D   5      16.086  41.455  10.6220  0.00  0.00     0.000 C
ATOM     82  O5  Z9L D   5      15.828  40.830   9.3560  0.00  0.00     0.000 O
ATOM     83   C  Z9L D   5      18.176  40.102   8.2080  0.00  0.00     0.000 C
ATOM     84   C  Z9L D   5      18.176  40.102   8.2080  0.00  0.00     0.000 C
BRANCH 78 85
ATOM     85   O  Z9L D   5      16.551  43.491   6.6860  0.00  0.00     0.000 O
ATOM     86   O  Z9L D   5      15.769  43.846   4.9620  0.00  0.00     0.000 OA
ATOM     87   S  Z9L D   5      15.035  43.554   6.1560  0.00  0.00     0.000 S
ATOM     88   O  Z9L D   5      14.354  44.782   6.4850  0.00  0.00     0.000 OA
ATOM     89   O  Z9L D   5      14.398  42.307   5.9080  0.00  0.00     0.000 OA
ENDBRANCH 78 85
BRANCH 79 90
ATOM     90   O  Z9L D   5      15.540  45.130   9.3180  0.00  0.00     0.000 O
ATOM     91   S  Z9L D   5      16.947  45.847   9.1120  0.00  0.00     0.000 S
ATOM     92   O  Z9L D   5      17.762  45.625   7.9470  0.00  0.00     0.000 OA
ATOM     93   O  Z9L D   5      17.547  46.099  10.3990  0.00  0.00     0.000 O
ATOM     94   O  Z9L D   5      16.088  46.949   8.8240  0.00  0.00     0.000 OA
ENDBRANCH 79 90
BRANCH 81 95
ATOM     95   C  Z9L D   5      15.398  40.788  11.9980  0.00  0.00     0.000 C
ATOM     96   S  Z9L D   5      14.052  39.485  12.6750  0.00  0.00     0.000 S
ATOM     97   O  Z9L D   5      14.141  40.479  11.4580  0.00  0.00     0.000 O
ATOM     98   O  Z9L D   5      13.856  40.288  13.8540  0.00  0.00     0.000 OA
ATOM     99   O  Z9L D   5      14.980  38.404  12.6610  0.00  0.00     0.000 OA
ATOM    100   O  Z9L D   5      12.764  39.221  12.0840  0.00  0.00     0.000 O
ENDBRANCH 81 95
ENDBRANCH 76 80
ENDBRANCH 60 76
ENDBRANCH 59 63
ENDBRANCH 37 59
ENDBRANCH 36 40
ENDBRANCH 23 36
ENDBRANCH 22 26
ENDBRANCH 1 22
TORSDOF 19
ENDMDL
MODEL 47
REMARK VINA RESULT:      -1.5     17.025     26.382
ROOT
ATOM      1  C1  Z9H D   1      35.672  43.354  15.3370  0.00  0.00     0.000 C
ATOM      2  C2  Z9H D   1      35.726  44.844  15.7500  0.00  0.00     0.000 C
ATOM      3  C3  Z9H D   1      37.258  45.070  15.5690  0.00  0.00     0.000 C
ATOM      4  C4  Z9H D   1      38.190  44.000  16.2750  0.00  0.00     0.000 C
ATOM      5  C5  Z9H D   1      37.960  42.441  16.1570  0.00  0.00     0.000 C
ATOM      6  O5  Z9H D   1      36.520  42.375  15.9980  0.00  0.00     0.000 O
ATOM      7   O  Z9H D   1      37.644  46.392  15.9480  0.00  0.00     0.000 O
ATOM      8   C  Z9H D   1      37.789  47.326  14.8640  0.00  0.00     0.000 C
ATOM      9   O  Z9H D   1      39.515  44.268  15.8040  0.00  0.00     0.000 O
ATOM     10   C  Z9H D   1      40.342  45.031  16.6890  0.00  0.00     0.000 C
ENDROOT
BRANCH 2 11
ATOM     11   O  Z9H D   1      35.130  45.475  14.6470  0.00  0.00     0.000 O
ATOM     12   O  Z9H D   1      33.492  46.407  14.7160  0.00  0.00     0.000 OA
ATOM     13   S  Z9H D   1      34.131  45.804  15.8370  0.00  0.00     0.000 S
ATOM     14   O  Z9H D   1      34.769  46.742  16.7150  0.00  0.00     0.000 OA
ATOM     15   O  Z9H D   1      33.402  44.631  16.2610  0.00  0.00     0.000 O
ENDBRANCH 2 11
BRANCH 5 16
ATOM     16   C  Z9H D   1      38.753  41.518  17.3060  0.00  0.00     0.000 C
ATOM     17   S  Z9H D   1      39.851  41.601  18.9870  0.00  0.00     0.000 S
ATOM     18   O  Z9H D   1      38.559  42.374  18.4060  0.00  0.00     0.000 O
ATOM     19   O  Z9H D   1      41.076  41.863  18.2880  0.00  0.00     0.000 O
ATOM     20   O  Z9H D   1      39.481  40.310  19.4540  0.00  0.00     0.000 OA
ATOM     21   O  Z9H D   1      39.635  42.530  20.0570  0.00  0.00     0.000 OA
ENDBRANCH 5 16
BRANCH 1 22
ATOM     22  O4  GU1 D   2      36.009  43.090  13.9260  0.00  0.00     0.000 O
BRANCH 22 26
ATOM     23  C1  GU1 D   2      35.080  40.827  10.6120  0.00  0.00     0.000 C
ATOM     24  C2  GU1 D   2      33.896  41.178  11.4990  0.00  0.00     0.000 C
ATOM     25  C3  GU1 D   2      34.282  42.293  12.4270  0.00  0.00     0.000 C
ATOM     26  C4  GU1 D   2      35.553  41.949  13.1910  0.00  0.00     0.000 C
ATOM     27  C5  GU1 D   2      36.649  41.510  12.2150  0.00  0.00     0.000 C
ATOM     28  O5  GU1 D   2      36.192  40.429  11.4060  0.00  0.00     0.000 O
ATOM     29   O  GU1 D   2      32.770  41.602  10.7400  0.00  0.00     0.000 O
ATOM     30   C  GU1 D   2      31.821  40.573  10.4950  0.00  0.00     0.000 C
ATOM     31   C  GU1 D   2      32.383  43.608  13.1020  0.00  0.00     0.000 C
ATOM     32   O  GU1 D   2      33.221  42.486  13.3680  0.00  0.00     0.000 O
BRANCH 27 33
ATOM     33   C  GU1 D   2      37.883  41.047  12.9520  0.00  0.00     0.000 C
ATOM     34   O  GU1 D   2      38.902  41.696  12.8360  0.00  0.00     0.000 OA
ATOM     35   O  GU1 D   2      37.851  40.045  13.6490  0.00  0.00     0.000 O
ENDBRANCH 27 33
BRANCH 23 36
ATOM     36  O4  GU6 D   3      35.049  39.632   9.8070  0.00  0.00     0.000 O
BRANCH 36 40
ATOM     37  C1  GU6 D   3      34.400  37.247   6.5530  0.00  0.00     0.000 C
ATOM     38  C2  GU6 D   3      35.188  36.571   7.6690  0.00  0.00     0.000 C
ATOM     39  C3  GU6 D   3      35.137  37.422   8.9100  0.00  0.00     0.000 C
ATOM     40  C4  GU6 D   3      34.578  38.773   8.7880  0.00  0.00     0.000 C
ATOM     41  C5  GU6 D   3      35.014  39.397   7.4210  0.00  0.00     0.000 C
ATOM     42  O5  GU6 D   3      34.982  38.515   6.2930  0.00  0.00     0.000 O
BRANCH 38 43
ATOM     43   O  GU6 D   3      34.662  35.286   7.9420  0.00  0.00     0.000 O
ATOM     44   S  GU6 D   3      35.682  34.158   7.8610  0.00  0.00     0.000 S
ATOM     45   O  GU6 D   3      35.851  33.780   6.4480  0.00  0.00     0.000 OA
ATOM     46   O  GU6 D   3      36.966  34.646   8.3950  0.00  0.00     0.000 O
ATOM     47   O  GU6 D   3      35.203  33.034   8.6590  0.00  0.00     0.000 OA
ENDBRANCH 38 43
BRANCH 39 48
ATOM     48   O  GU6 D   3      35.398  36.865  10.1840  0.00  0.00     0.000 O
ATOM     49   S  GU6 D   3      34.427  36.415  11.2760  0.00  0.00     0.000 S
ATOM     50   O  GU6 D   3      33.476  35.438  10.7340  0.00  0.00     0.000 OA
ATOM     51   O  GU6 D   3      35.312  35.799  12.2740  0.00  0.00     0.000 OA
ATOM     52   O  GU6 D   3      33.701  37.598  11.7890  0.00  0.00     0.000 O
ENDBRANCH 39 48
BRANCH 41 53
ATOM     53   C  GU6 D   3      35.451  40.805   7.1190  0.00  0.00     0.000 C
ATOM     54   O  GU6 D   3      34.227  41.444   7.3780  0.00  0.00     0.000 O
ATOM     55   S  GU6 D   3      34.062  42.946   7.1120  0.00  0.00     0.000 S
ATOM     56   O  GU6 D   3      34.170  43.135   5.6460  0.00  0.00     0.000 O
ATOM     57   O  GU6 D   3      32.737  43.364   7.5930  0.00  0.00     0.000 OA
ATOM     58   O  GU6 D   3      35.159  43.641   7.8210  0.00  0.00     0.000 OA
ENDBRANCH 41 53
BRANCH 37 59
ATOM     59  O4  Z9K D   4      32.968  37.420   6.5390  0.00  0.00     0.000 O
BRANCH 59 63
ATOM     60  C1  Z9K D   4      29.198  36.420   6.0560  0.00  0.00     0.000 C
ATOM     61  C2  Z9K D   4      29.917  35.216   5.3870  0.00  0.00     0.000 C
ATOM     62  C3  Z9K D   4      31.433  35.532   5.7470  0.00  0.00     0.000 C
ATOM     63  C4  Z9K D   4      31.977  36.999   5.5560  0.00  0.00     0.000 C
ATOM     64  C5  Z9K D   4      30.932  38.123   5.6410  0.00  0.00     0.000 C
ATOM     65  O5  Z9K D   4      29.969  37.595   6.5910  0.00  0.00     0.000 O
ATOM     66   O  Z9K D   4      32.371  34.696   5.0450  0.00  0.00     0.000 O
ATOM     67   C  Z9K D   4      32.626  33.449   5.6700  0.00  0.00     0.000 C
BRANCH 61 68
ATOM     68   O  Z9K D   4      29.569  34.072   6.1190  0.00  0.00     0.000 O
ATOM     69   O  Z9K D   4      29.936  33.515   3.6480  0.00  0.00     0.000 OA
ATOM     70   S  Z9K D   4      28.948  33.738   4.6600  0.00  0.00     0.000 S
ATOM     71   O  Z9K D   4      27.731  34.471   4.4940  0.00  0.00     0.000 OA
ATOM     72   O  Z9K D   4      28.685  32.539   5.3880  0.00  0.00     0.000 OA
ENDBRANCH 61 68
BRANCH 64 73
ATOM     73   C  Z9K D   4      31.607  39.478   5.9430  0.00  0.00     0.000 C
ATOM     74   O  Z9K D   4      31.477  40.038   7.0700  0.00  0.00     0.000 O
ATOM     75   O  Z9K D   4      32.311  40.071   5.0900  0.00  0.00     0.000 OA
ENDBRANCH 64 73
BRANCH 60 76
ATOM     76  O4  Z9L D   5      28.119  37.218   5.5380  0.00  0.00     0.000 O
BRANCH 76 80
ATOM     77  C1  Z9L D   5      24.591  38.888   6.3940  0.00  0.00     0.000 C
ATOM     78  C2  Z9L D   5      25.632  40.084   6.1550  0.00  0.00     0.000 C
ATOM     79  C3  Z9L D   5      26.966  39.416   5.3590  0.00  0.00     0.000 C
ATOM     80  C4  Z9L D   5      27.152  38.003   6.1850  0.00  0.00     0.000 C
ATOM     81  C5  Z9L D   5      26.071  36.895   6.6360  0.00  0.00     0.000 C
ATOM     82  O5  Z9L D   5      24.917  37.618   7.0920  0.00  0.00     0.000 O
ATOM     83   C  Z9L D   5      22.980  37.525   5.1940  0.00  0.00     0.000 C
ATOM     84   C  Z9L D   5      22.980  37.525   5.1940  0.00  0.00     0.000 C
BRANCH 78 85
ATOM     85   O  Z9L D   5      25.027  41.023   5.3240  0.00  0.00     0.000 O
ATOM     86   O  Z9L D   5      24.462  42.782   5.8690  0.00  0.00     0.000 OA
ATOM     87   S  Z9L D   5      25.196  41.863   6.6840  0.00  0.00     0.000 S
ATOM     88   O  Z9L D   5      26.499  42.459   6.8410  0.00  0.00     0.000 OA
ATOM     89   O  Z9L D   5      24.317  41.525   7.7500  0.00  0.00     0.000 OA
ENDBRANCH 78 85
BRANCH 79 90
ATOM     90   O  Z9L D   5      28.137  40.103   5.6670  0.00  0.00     0.000 O
ATOM     91   S  Z9L D   5      28.108  40.319   4.0890  0.00  0.00     0.000 S
ATOM     92   O  Z9L D   5      26.986  40.915   3.4130  0.00  0.00     0.000 OA
ATOM     93   O  Z9L D   5      28.897  39.294   3.4530  0.00  0.00     0.000 O
ATOM     94   O  Z9L D   5      28.998  41.376   4.4450  0.00  0.00     0.000 OA
ENDBRANCH 79 90
BRANCH 81 95
ATOM     95   C  Z9L D   5      26.626  35.610   7.5600  0.00  0.00     0.000 C
ATOM     96   S  Z9L D   5      26.798  34.893   9.4110  0.00  0.00     0.000 S
ATOM     97   O  Z9L D   5      26.880  36.318   8.7440  0.00  0.00     0.000 O
ATOM     98   O  Z9L D   5      27.997  34.190   9.0340  0.00  0.00     0.000 OA
ATOM     99   O  Z9L D   5      25.523  34.261   9.3650  0.00  0.00     0.000 OA
ATOM    100   O  Z9L D   5      27.078  35.671  10.5920  0.00  0.00     0.000 O
ENDBRANCH 81 95
ENDBRANCH 76 80
ENDBRANCH 60 76
ENDBRANCH 59 63
ENDBRANCH 37 59
ENDBRANCH 36 40
ENDBRANCH 23 36
ENDBRANCH 22 26
ENDBRANCH 1 22
TORSDOF 19
ENDMDL
MODEL 48
REMARK VINA RESULT:      -1.2     19.034     27.950
ROOT
ATOM      1  C1  Z9H D   1      38.309  45.323  14.1090  0.00  0.00     0.000 C
ATOM      2  C2  Z9H D   1      39.079  45.481  15.4420  0.00  0.00     0.000 C
ATOM      3  C3  Z9H D   1      38.620  46.930  15.7930  0.00  0.00     0.000 C
ATOM      4  C4  Z9H D   1      38.787  47.995  14.6320  0.00  0.00     0.000 C
ATOM      5  C5  Z9H D   1      38.316  47.734  13.1460  0.00  0.00     0.000 C
ATOM      6  O5  Z9H D   1      38.477  46.297  13.0420  0.00  0.00     0.000 O
ATOM      7   O  Z9H D   1      39.238  47.401  16.9920  0.00  0.00     0.000 O
ATOM      8   C  Z9H D   1      38.437  47.295  18.1810  0.00  0.00     0.000 C
ATOM      9   O  Z9H D   1      38.115  49.174  15.0870  0.00  0.00     0.000 O
ATOM     10   C  Z9H D   1      38.957  50.190  15.6400  0.00  0.00     0.000 C
ENDROOT
BRANCH 2 11
ATOM     11   O  Z9H D   1      38.348  44.647  16.3020  0.00  0.00     0.000 O
ATOM     12   O  Z9H D   1      39.027  43.069  17.0800  0.00  0.00     0.000 OA
ATOM     13   S  Z9H D   1      39.773  43.949  16.2440  0.00  0.00     0.000 S
ATOM     14   O  Z9H D   1      40.708  44.772  16.9560  0.00  0.00     0.000 OA
ATOM     15   O  Z9H D   1      40.015  43.337  14.9580  0.00  0.00     0.000 O
ENDBRANCH 2 11
BRANCH 5 16
ATOM     16   C  Z9H D   1      38.968  48.768  12.0030  0.00  0.00     0.000 C
ATOM     17   S  Z9H D   1      40.321  50.225  11.7080  0.00  0.00     0.000 S
ATOM     18   O  Z9H D   1      40.272  48.835  12.5280  0.00  0.00     0.000 O
ATOM     19   O  Z9H D   1      39.463  51.256  12.2180  0.00  0.00     0.000 O
ATOM     20   O  Z9H D   1      40.493  49.970  10.3200  0.00  0.00     0.000 OA
ATOM     21   O  Z9H D   1      41.622  50.262  12.3100  0.00  0.00     0.000 OA
ENDBRANCH 5 16
BRANCH 1 22
ATOM     22  O4  GU1 D   2      36.841  45.318  14.2390  0.00  0.00     0.000 O
BRANCH 22 26
ATOM     23  C1  GU1 D   2      33.352  43.644  12.8260  0.00  0.00     0.000 C
ATOM     24  C2  GU1 D   2      34.554  42.712  12.8270  0.00  0.00     0.000 C
ATOM     25  C3  GU1 D   2      35.632  43.291  13.6970  0.00  0.00     0.000 C
ATOM     26  C4  GU1 D   2      35.952  44.721  13.2870  0.00  0.00     0.000 C
ATOM     27  C5  GU1 D   2      34.665  45.548  13.2170  0.00  0.00     0.000 C
ATOM     28  O5  GU1 D   2      33.723  44.930  12.3430  0.00  0.00     0.000 O
ATOM     29   O  GU1 D   2      34.226  41.421  13.3260  0.00  0.00     0.000 O
ATOM     30   C  GU1 D   2      33.941  40.469  12.3110  0.00  0.00     0.000 C
ATOM     31   C  GU1 D   2      37.066  41.590  14.6140  0.00  0.00     0.000 C
ATOM     32   O  GU1 D   2      36.812  42.496  13.5440  0.00  0.00     0.000 O
BRANCH 27 33
ATOM     33   C  GU1 D   2      34.936  46.939  12.6960  0.00  0.00     0.000 C
ATOM     34   O  GU1 D   2      34.800  47.876  13.4560  0.00  0.00     0.000 OA
ATOM     35   O  GU1 D   2      35.287  47.112  11.5390  0.00  0.00     0.000 O
ENDBRANCH 27 33
BRANCH 23 36
ATOM     36  O4  GU6 D   3      32.284  43.442  11.8800  0.00  0.00     0.000 O
BRANCH 36 40
ATOM     37  C1  GU6 D   3      28.619  42.083  10.6900  0.00  0.00     0.000 C
ATOM     38  C2  GU6 D   3      29.076  43.345   9.9670  0.00  0.00     0.000 C
ATOM     39  C3  GU6 D   3      30.528  43.604  10.2730  0.00  0.00     0.000 C
ATOM     40  C4  GU6 D   3      31.158  42.795  11.3220  0.00  0.00     0.000 C
ATOM     41  C5  GU6 D   3      30.138  42.559  12.4840  0.00  0.00     0.000 C
ATOM     42  O5  GU6 D   3      28.793  42.273  12.0850  0.00  0.00     0.000 O
BRANCH 38 43
ATOM     43   O  GU6 D   3      28.892  43.213   8.5710  0.00  0.00     0.000 O
ATOM     44   S  GU6 D   3      27.896  44.198   7.9720  0.00  0.00     0.000 S
ATOM     45   O  GU6 D   3      26.535  43.680   8.1930  0.00  0.00     0.000 OA
ATOM     46   O  GU6 D   3      28.044  45.494   8.6580  0.00  0.00     0.000 O
ATOM     47   O  GU6 D   3      28.183  44.350   6.5490  0.00  0.00     0.000 OA
ENDBRANCH 38 43
BRANCH 39 48
ATOM     48   O  GU6 D   3      31.312  44.425   9.4290  0.00  0.00     0.000 O
ATOM     49   S  GU6 D   3      32.331  44.039   8.3570  0.00  0.00     0.000 S
ATOM     50   O  GU6 D   3      31.715  43.139   7.3750  0.00  0.00     0.000 OA
ATOM     51   O  GU6 D   3      32.679  45.331   7.7480  0.00  0.00     0.000 OA
ATOM     52   O  GU6 D   3      33.480  43.371   9.0050  0.00  0.00     0.000 O
ENDBRANCH 39 48
BRANCH 41 53
ATOM     53   C  GU6 D   3      30.375  42.575  13.9700  0.00  0.00     0.000 C
ATOM     54   O  GU6 D   3      30.981  41.313  14.0800  0.00  0.00     0.000 O
ATOM     55   S  GU6 D   3      31.345  40.742  15.4570  0.00  0.00     0.000 S
ATOM     56   O  GU6 D   3      30.070  40.503  16.1720  0.00  0.00     0.000 O
ATOM     57   O  GU6 D   3      32.077  39.482  15.2630  0.00  0.00     0.000 OA
ATOM     58   O  GU6 D   3      32.162  41.762  16.1530  0.00  0.00     0.000 OA
ENDBRANCH 41 53
BRANCH 37 59
ATOM     59  O4  Z9K D   4      29.062  40.745  10.3800  0.00  0.00     0.000 O
BRANCH 59 63
ATOM     60  C1  Z9K D   4      28.088  39.448   6.8000  0.00  0.00     0.000 C
ATOM     61  C2  Z9K D   4      26.712  39.405   7.5210  0.00  0.00     0.000 C
ATOM     62  C3  Z9K D   4      27.074  40.101   8.9040  0.00  0.00     0.000 C
ATOM     63  C4  Z9K D   4      28.390  39.672   9.6580  0.00  0.00     0.000 C
ATOM     64  C5  Z9K D   4      29.518  39.110   8.7800  0.00  0.00     0.000 C
ATOM     65  O5  Z9K D   4      29.345  39.831   7.5320  0.00  0.00     0.000 O
ATOM     66   O  Z9K D   4      26.031  39.988   9.8880  0.00  0.00     0.000 O
ATOM     67   C  Z9K D   4      25.032  40.992   9.8020  0.00  0.00     0.000 C
BRANCH 61 68
ATOM     68   O  Z9K D   4      25.865  40.292   6.8440  0.00  0.00     0.000 O
ATOM     69   O  Z9K D   4      24.558  38.306   7.7920  0.00  0.00     0.000 OA
ATOM     70   S  Z9K D   4      25.123  38.872   6.6040  0.00  0.00     0.000 S
ATOM     71   O  Z9K D   4      25.819  38.150   5.5830  0.00  0.00     0.000 OA
ATOM     72   O  Z9K D   4      24.219  39.796   6.0000  0.00  0.00     0.000 OA
ENDBRANCH 61 68
BRANCH 64 73
ATOM     73   C  Z9K D   4      30.877  39.200   9.5070  0.00  0.00     0.000 C
ATOM     74   O  Z9K D   4      31.738  40.068   9.1810  0.00  0.00     0.000 O
ATOM     75   O  Z9K D   4      31.176  38.425  10.4480  0.00  0.00     0.000 OA
ENDBRANCH 64 73
BRANCH 60 76
ATOM     76  O4  Z9L D   5      28.720  38.421   6.0180  0.00  0.00     0.000 O
BRANCH 76 80
ATOM     77  C1  Z9L D   5      31.104  37.711   2.8900  0.00  0.00     0.000 C
ATOM     78  C2  Z9L D   5      31.891  37.224   4.2000  0.00  0.00     0.000 C
ATOM     79  C3  Z9L D   5      30.742  37.091   5.4350  0.00  0.00     0.000 C
ATOM     80  C4  Z9L D   5      29.849  38.453   5.1830  0.00  0.00     0.000 C
ATOM     81  C5  Z9L D   5      29.243  39.080   3.8270  0.00  0.00     0.000 C
ATOM     82  O5  Z9L D   5      30.257  38.929   2.8230  0.00  0.00     0.000 O
ATOM     83   C  Z9L D   5      29.603  36.875   1.1750  0.00  0.00     0.000 C
ATOM     84   C  Z9L D   5      29.603  36.875   1.1750  0.00  0.00     0.000 C
BRANCH 78 85
ATOM     85   O  Z9L D   5      32.428  35.967   3.9390  0.00  0.00     0.000 O
ATOM     86   O  Z9L D   5      34.305  35.586   3.7340  0.00  0.00     0.000 OA
ATOM     87   S  Z9L D   5      33.758  36.849   4.1250  0.00  0.00     0.000 S
ATOM     88   O  Z9L D   5      34.155  37.019   5.5010  0.00  0.00     0.000 OA
ATOM     89   O  Z9L D   5      34.079  37.741   3.0650  0.00  0.00     0.000 OA
ENDBRANCH 78 85
BRANCH 79 90
ATOM     90   O  Z9L D   5      31.310  37.328   6.6830  0.00  0.00     0.000 O
ATOM     91   S  Z9L D   5      30.719  35.870   6.9310  0.00  0.00     0.000 S
ATOM     92   O  Z9L D   5      31.063  34.748   6.0980  0.00  0.00     0.000 OA
ATOM     93   O  Z9L D   5      29.410  35.980   7.5250  0.00  0.00     0.000 O
ATOM     94   O  Z9L D   5      31.670  35.913   7.9950  0.00  0.00     0.000 OA
ENDBRANCH 79 90
BRANCH 81 95
ATOM     95   C  Z9L D   5      28.452  40.554   3.9480  0.00  0.00     0.000 C
ATOM     96   S  Z9L D   5      27.206  41.811   3.0340  0.00  0.00     0.000 S
ATOM     97   O  Z9L D   5      28.357  40.838   2.5780  0.00  0.00     0.000 O
ATOM     98   O  Z9L D   5      27.842  42.927   3.6880  0.00  0.00     0.000 OA
ATOM     99   O  Z9L D   5      26.051  41.189   3.5870  0.00  0.00     0.000 OA
ATOM    100   O  Z9L D   5      27.167  42.076   1.6170  0.00  0.00     0.000 O
ENDBRANCH 81 95
ENDBRANCH 76 80
ENDBRANCH 60 76
ENDBRANCH 59 63
ENDBRANCH 37 59
ENDBRANCH 36 40
ENDBRANCH 23 36
ENDBRANCH 22 26
ENDBRANCH 1 22
TORSDOF 19
ENDMDL
MODEL 49
REMARK VINA RESULT:      -1.1     24.706     29.096
ROOT
ATOM      1  C1  Z9H D   1      13.501  55.740  23.4430  0.00  0.00     0.000 C
ATOM      2  C2  Z9H D   1      12.745  57.042  23.7990  0.00  0.00     0.000 C
ATOM      3  C3  Z9H D   1      12.929  57.784  22.4400  0.00  0.00     0.000 C
ATOM      4  C4  Z9H D   1      14.414  57.835  21.8890  0.00  0.00     0.000 C
ATOM      5  C5  Z9H D   1      15.357  56.568  21.8280  0.00  0.00     0.000 C
ATOM      6  O5  Z9H D   1      14.869  55.792  22.9520  0.00  0.00     0.000 O
ATOM      7   O  Z9H D   1      12.367  59.097  22.4770  0.00  0.00     0.000 O
ATOM      8   C  Z9H D   1      11.055  59.222  21.9040  0.00  0.00     0.000 C
ATOM      9   O  Z9H D   1      14.318  58.354  20.5590  0.00  0.00     0.000 O
ATOM     10   C  Z9H D   1      14.608  59.748  20.4180  0.00  0.00     0.000 C
ENDROOT
BRANCH 2 11
ATOM     11   O  Z9H D   1      11.409  56.613  23.8040  0.00  0.00     0.000 O
ATOM     12   O  Z9H D   1      10.308  56.590  25.3350  0.00  0.00     0.000 OA
ATOM     13   S  Z9H D   1      11.650  57.068  25.3070  0.00  0.00     0.000 S
ATOM     14   O  Z9H D   1      11.757  58.499  25.3330  0.00  0.00     0.000 OA
ATOM     15   O  Z9H D   1      12.525  56.156  26.0070  0.00  0.00     0.000 O
ENDBRANCH 2 11
BRANCH 5 16
ATOM     16   C  Z9H D   1      16.986  56.905  21.6450  0.00  0.00     0.000 C
ATOM     17   S  Z9H D   1      18.722  57.143  22.6300  0.00  0.00     0.000 S
ATOM     18   O  Z9H D   1      17.464  56.135  22.7220  0.00  0.00     0.000 O
ATOM     19   O  Z9H D   1      18.436  58.499  23.0000  0.00  0.00     0.000 O
ATOM     20   O  Z9H D   1      19.551  56.793  21.5300  0.00  0.00     0.000 OA
ATOM     21   O  Z9H D   1      19.134  56.355  23.7550  0.00  0.00     0.000 OA
ENDBRANCH 5 16
BRANCH 1 22
ATOM     22  O4  GU1 D   2      12.869  54.925  22.3900  0.00  0.00     0.000 O
BRANCH 22 26
ATOM     23  C1  GU1 D   2      12.012  51.088  21.1610  0.00  0.00     0.000 C
ATOM     24  C2  GU1 D   2      11.981  51.299  22.6670  0.00  0.00     0.000 C
ATOM     25  C3  GU1 D   2      11.924  52.770  22.9620  0.00  0.00     0.000 C
ATOM     26  C4  GU1 D   2      13.048  53.511  22.2520  0.00  0.00     0.000 C
ATOM     27  C5  GU1 D   2      13.056  53.149  20.7630  0.00  0.00     0.000 C
ATOM     28  O5  GU1 D   2      13.144  51.737  20.5940  0.00  0.00     0.000 O
ATOM     29   O  GU1 D   2      10.849  50.682  23.2680  0.00  0.00     0.000 O
ATOM     30   C  GU1 D   2      11.116  49.398  23.8140  0.00  0.00     0.000 C
ATOM     31   C  GU1 D   2      10.865  53.230  25.0730  0.00  0.00     0.000 C
ATOM     32   O  GU1 D   2      12.075  52.955  24.3730  0.00  0.00     0.000 O
BRANCH 27 33
ATOM     33   C  GU1 D   2      14.234  53.775  20.0550  0.00  0.00     0.000 C
ATOM     34   O  GU1 D   2      15.352  53.450  20.3960  0.00  0.00     0.000 OA
ATOM     35   O  GU1 D   2      14.060  54.585  19.1580  0.00  0.00     0.000 O
ENDBRANCH 27 33
BRANCH 23 36
ATOM     36  O4  GU6 D   3      12.313  49.786  20.6220  0.00  0.00     0.000 O
BRANCH 36 40
ATOM     37  C1  GU6 D   3      13.244  46.570  18.2800  0.00  0.00     0.000 C
ATOM     38  C2  GU6 D   3      11.772  46.960  18.2380  0.00  0.00     0.000 C
ATOM     39  C3  GU6 D   3      11.585  48.298  18.9040  0.00  0.00     0.000 C
ATOM     40  C4  GU6 D   3      12.725  48.859  19.6370  0.00  0.00     0.000 C
ATOM     41  C5  GU6 D   3      13.488  47.710  20.3760  0.00  0.00     0.000 C
ATOM     42  O5  GU6 D   3      13.654  46.495  19.6370  0.00  0.00     0.000 O
BRANCH 38 43
ATOM     43   O  GU6 D   3      11.311  47.017  16.9020  0.00  0.00     0.000 O
ATOM     44   S  GU6 D   3      10.559  45.774  16.4420  0.00  0.00     0.000 S
ATOM     45   O  GU6 D   3      11.543  44.750  16.0510  0.00  0.00     0.000 OA
ATOM     46   O  GU6 D   3       9.749  45.271  17.5660  0.00  0.00     0.000 O
ATOM     47   O  GU6 D   3       9.694  46.135  15.3230  0.00  0.00     0.000 OA
ENDBRANCH 38 43
BRANCH 39 48
ATOM     48   O  GU6 D   3      10.442  49.088  18.6390  0.00  0.00     0.000 O
ATOM     49   S  GU6 D   3       9.042  49.023  19.2500  0.00  0.00     0.000 S
ATOM     50   O  GU6 D   3       9.123  49.131  20.7110  0.00  0.00     0.000 OA
ATOM     51   O  GU6 D   3       8.370  50.192  18.6670  0.00  0.00     0.000 OA
ATOM     52   O  GU6 D   3       8.413  47.738  18.8710  0.00  0.00     0.000 O
ENDBRANCH 39 48
BRANCH 41 53
ATOM     53   C  GU6 D   3      14.090  47.706  21.7550  0.00  0.00     0.000 C
ATOM     54   O  GU6 D   3      13.904  46.344  22.0410  0.00  0.00     0.000 O
ATOM     55   S  GU6 D   3      14.254  45.784  23.4260  0.00  0.00     0.000 S
ATOM     56   O  GU6 D   3      13.311  46.402  24.3870  0.00  0.00     0.000 O
ATOM     57   O  GU6 D   3      14.085  44.324  23.3970  0.00  0.00     0.000 OA
ATOM     58   O  GU6 D   3      15.649  46.181  23.7200  0.00  0.00     0.000 OA
ENDBRANCH 41 53
BRANCH 37 59
ATOM     59  O4  Z9K D   4      14.298  47.232  17.5490  0.00  0.00     0.000 O
BRANCH 59 63
ATOM     60  C1  Z9K D   4      14.058  45.843  13.8810  0.00  0.00     0.000 C
ATOM     61  C2  Z9K D   4      14.988  44.788  14.5420  0.00  0.00     0.000 C
ATOM     62  C3  Z9K D   4      14.933  45.248  16.0630  0.00  0.00     0.000 C
ATOM     63  C4  Z9K D   4      15.082  46.779  16.4070  0.00  0.00     0.000 C
ATOM     64  C5  Z9K D   4      14.658  47.763  15.3060  0.00  0.00     0.000 C
ATOM     65  O5  Z9K D   4      13.583  47.053  14.6370  0.00  0.00     0.000 O
ATOM     66   O  Z9K D   4      15.904  44.586  16.8930  0.00  0.00     0.000 O
ATOM     67   C  Z9K D   4      15.482  43.331  17.4010  0.00  0.00     0.000 C
BRANCH 61 68
ATOM     68   O  Z9K D   4      14.322  43.556  14.4790  0.00  0.00     0.000 O
ATOM     69   O  Z9K D   4      16.855  43.251  14.2780  0.00  0.00     0.000 OA
ATOM     70   S  Z9K D   4      15.621  43.282  13.5510  0.00  0.00     0.000 S
ATOM     71   O  Z9K D   4      15.418  43.893  12.2730  0.00  0.00     0.000 OA
ATOM     72   O  Z9K D   4      14.984  42.005  13.5730  0.00  0.00     0.000 OA
ENDBRANCH 61 68
BRANCH 64 73
ATOM     73   C  Z9K D   4      14.368  49.159  15.8990  0.00  0.00     0.000 C
ATOM     74   O  Z9K D   4      13.187  49.603  15.9830  0.00  0.00     0.000 O
ATOM     75   O  Z9K D   4      15.288  49.900  16.3250  0.00  0.00     0.000 OA
ENDBRANCH 64 73
BRANCH 60 76
ATOM     76  O4  Z9L D   5      14.246  46.549  12.6420  0.00  0.00     0.000 O
BRANCH 76 80
ATOM     77  C1  Z9L D   5      12.350  47.867   9.3800  0.00  0.00     0.000 C
ATOM     78  C2  Z9L D   5      12.945  49.154  10.1300  0.00  0.00     0.000 C
ATOM     79  C3  Z9L D   5      14.109  48.587  11.2190  0.00  0.00     0.000 C
ATOM     80  C4  Z9L D   5      13.345  47.264  11.8360  0.00  0.00     0.000 C
ATOM     81  C5  Z9L D   5      12.538  46.075  11.1040  0.00  0.00     0.000 C
ATOM     82  O5  Z9L D   5      11.757  46.693  10.0710  0.00  0.00     0.000 O
ATOM     83   C  Z9L D   5      12.928  46.253   7.6620  0.00  0.00     0.000 C
ATOM     84   C  Z9L D   5      12.928  46.253   7.6620  0.00  0.00     0.000 C
BRANCH 78 85
ATOM     85   O  Z9L D   5      13.565  49.959   9.1790  0.00  0.00     0.000 O
ATOM     86   O  Z9L D   5      12.927  51.683   8.6030  0.00  0.00     0.000 OA
ATOM     87   S  Z9L D   5      12.365  50.910   9.6680  0.00  0.00     0.000 S
ATOM     88   O  Z9L D   5      12.663  51.652  10.8680  0.00  0.00     0.000 OA
ATOM     89   O  Z9L D   5      11.059  50.558   9.2260  0.00  0.00     0.000 OA
ENDBRANCH 78 85
BRANCH 79 90
ATOM     90   O  Z9L D   5      14.214  49.420  12.3280  0.00  0.00     0.000 O
ATOM     91   S  Z9L D   5      15.722  49.463  11.8180  0.00  0.00     0.000 S
ATOM     92   O  Z9L D   5      16.072  49.865  10.4810  0.00  0.00     0.000 OA
ATOM     93   O  Z9L D   5      16.491  48.464  12.5170  0.00  0.00     0.000 O
ATOM     94   O  Z9L D   5      15.724  50.639  12.6270  0.00  0.00     0.000 OA
ENDBRANCH 79 90
BRANCH 81 95
ATOM     95   C  Z9L D   5      11.804  44.927  12.0820  0.00  0.00     0.000 C
ATOM     96   S  Z9L D   5      10.798  43.208  12.0990  0.00  0.00     0.000 S
ATOM     97   O  Z9L D   5      10.843  44.476  11.1660  0.00  0.00     0.000 O
ATOM     98   O  Z9L D   5      10.123  43.607  13.3080  0.00  0.00     0.000 OA
ATOM     99   O  Z9L D   5      11.987  42.426  12.1380  0.00  0.00     0.000 OA
ATOM    100   O  Z9L D   5       9.805  42.805  11.1340  0.00  0.00     0.000 O
ENDBRANCH 81 95
ENDBRANCH 76 80
ENDBRANCH 60 76
ENDBRANCH 59 63
ENDBRANCH 37 59
ENDBRANCH 36 40
ENDBRANCH 23 36
ENDBRANCH 22 26
ENDBRANCH 1 22
TORSDOF 19
ENDMDL
MODEL 50
REMARK VINA RESULT:      -0.7     21.916     29.578
ROOT
ATOM      1  C1  Z9H D   1      37.681  46.575  14.2890  0.00  0.00     0.000 C
ATOM      2  C2  Z9H D   1      38.258  46.628  15.7240  0.00  0.00     0.000 C
ATOM      3  C3  Z9H D   1      38.271  48.177  15.9010  0.00  0.00     0.000 C
ATOM      4  C4  Z9H D   1      38.955  48.990  14.7250  0.00  0.00     0.000 C
ATOM      5  C5  Z9H D   1      38.643  48.726  13.1980  0.00  0.00     0.000 C
ATOM      6  O5  Z9H D   1      38.322  47.312  13.2100  0.00  0.00     0.000 O
ATOM      7   O  Z9H D   1      38.832  48.558  17.1590  0.00  0.00     0.000 O
ATOM      8   C  Z9H D   1      37.879  48.855  18.1940  0.00  0.00     0.000 C
ATOM      9   O  Z9H D   1      38.664  50.367  14.9830  0.00  0.00     0.000 O
ATOM     10   C  Z9H D   1      39.711  51.112  15.6130  0.00  0.00     0.000 C
ENDROOT
BRANCH 2 11
ATOM     11   O  Z9H D   1      37.171  46.181  16.4910  0.00  0.00     0.000 O
ATOM     12   O  Z9H D   1      37.165  44.581  17.4900  0.00  0.00     0.000 OA
ATOM     13   S  Z9H D   1      38.277  45.070  16.7460  0.00  0.00     0.000 S
ATOM     14   O  Z9H D   1      39.313  45.642  17.5580  0.00  0.00     0.000 OA
ATOM     15   O  Z9H D   1      38.495  44.255  15.5720  0.00  0.00     0.000 O
ENDBRANCH 2 11
BRANCH 5 16
ATOM     16   C  Z9H D   1      39.765  49.354  12.1270  0.00  0.00     0.000 C
ATOM     17   S  Z9H D   1      40.399  49.313  10.2200  0.00  0.00     0.000 S
ATOM     18   O  Z9H D   1      38.968  49.313  10.9680  0.00  0.00     0.000 O
ATOM     19   O  Z9H D   1      41.174  48.120  10.4030  0.00  0.00     0.000 O
ATOM     20   O  Z9H D   1      40.961  50.618  10.2360  0.00  0.00     0.000 OA
ATOM     21   O  Z9H D   1      39.537  49.222   9.0770  0.00  0.00     0.000 OA
ENDBRANCH 5 16
BRANCH 1 22
ATOM     22  O4  GU1 D   2      36.296  47.062  14.1600  0.00  0.00     0.000 O
BRANCH 22 26
ATOM     23  C1  GU1 D   2      32.700  46.427  12.2540  0.00  0.00     0.000 C
ATOM     24  C2  GU1 D   2      33.540  45.177  12.4680  0.00  0.00     0.000 C
ATOM     25  C3  GU1 D   2      34.608  45.463  13.4830  0.00  0.00     0.000 C
ATOM     26  C4  GU1 D   2      35.412  46.695  13.0940  0.00  0.00     0.000 C
ATOM     27  C5  GU1 D   2      34.468  47.866  12.8000  0.00  0.00     0.000 C
ATOM     28  O5  GU1 D   2      33.517  47.501  11.8040  0.00  0.00     0.000 O
ATOM     29   O  GU1 D   2      32.759  44.085  12.9400  0.00  0.00     0.000 O
ATOM     30   C  GU1 D   2      32.340  43.194  11.9170  0.00  0.00     0.000 C
ATOM     31   C  GU1 D   2      35.296  43.478  14.6570  0.00  0.00     0.000 C
ATOM     32   O  GU1 D   2      35.492  44.339  13.5380  0.00  0.00     0.000 O
BRANCH 27 33
ATOM     33   C  GU1 D   2      35.230  49.068  12.2950  0.00  0.00     0.000 C
ATOM     34   O  GU1 D   2      35.360  50.022  13.0350  0.00  0.00     0.000 OA
ATOM     35   O  GU1 D   2      35.705  49.074  11.1700  0.00  0.00     0.000 O
ENDBRANCH 27 33
BRANCH 23 36
ATOM     36  O4  GU6 D   3      31.768  46.490  11.1560  0.00  0.00     0.000 O
BRANCH 36 40
ATOM     37  C1  GU6 D   3      28.023  46.352   9.5280  0.00  0.00     0.000 C
ATOM     38  C2  GU6 D   3      28.952  47.358   8.8590  0.00  0.00     0.000 C
ATOM     39  C3  GU6 D   3      30.362  47.141   9.3410  0.00  0.00     0.000 C
ATOM     40  C4  GU6 D   3      30.564  46.222  10.4660  0.00  0.00     0.000 C
ATOM     41  C5  GU6 D   3      29.397  46.389  11.4940  0.00  0.00     0.000 C
ATOM     42  O5  GU6 D   3      28.088  46.541  10.9330  0.00  0.00     0.000 O
BRANCH 38 43
ATOM     43   O  GU6 D   3      28.897  47.226   7.4520  0.00  0.00     0.000 O
ATOM     44   S  GU6 D   3      28.318  48.436   6.7290  0.00  0.00     0.000 S
ATOM     45   O  GU6 D   3      26.849  48.357   6.7860  0.00  0.00     0.000 OA
ATOM     46   O  GU6 D   3      28.771  49.657   7.4190  0.00  0.00     0.000 O
ATOM     47   O  GU6 D   3      28.798  48.433   5.3500  0.00  0.00     0.000 OA
ENDBRANCH 38 43
BRANCH 39 48
ATOM     48   O  GU6 D   3      31.466  47.618   8.5950  0.00  0.00     0.000 O
ATOM     49   S  GU6 D   3      32.398  46.874   7.6390  0.00  0.00     0.000 S
ATOM     50   O  GU6 D   3      31.619  46.210   6.5880  0.00  0.00     0.000 OA
ATOM     51   O  GU6 D   3      33.231  47.949   7.0830  0.00  0.00     0.000 OA
ATOM     52   O  GU6 D   3      33.172  45.872   8.4050  0.00  0.00     0.000 O
ENDBRANCH 39 48
BRANCH 41 53
ATOM     53   C  GU6 D   3      29.452  46.398  12.9980  0.00  0.00     0.000 C
ATOM     54   O  GU6 D   3      29.535  45.011  13.1940  0.00  0.00     0.000 O
ATOM     55   S  GU6 D   3      29.505  44.422  14.6110  0.00  0.00     0.000 S
ATOM     56   O  GU6 D   3      28.159  44.702  15.1620  0.00  0.00     0.000 O
ATOM     57   O  GU6 D   3      29.738  42.973  14.5210  0.00  0.00     0.000 OA
ATOM     58   O  GU6 D   3      30.555  45.110  15.3950  0.00  0.00     0.000 OA
ENDBRANCH 41 53
BRANCH 37 59
ATOM     59  O4  Z9K D   4      28.031  44.929   9.2860  0.00  0.00     0.000 O
BRANCH 59 63
ATOM     60  C1  Z9K D   4      27.164  44.044   5.5560  0.00  0.00     0.000 C
ATOM     61  C2  Z9K D   4      25.757  44.386   6.1190  0.00  0.00     0.000 C
ATOM     62  C3  Z9K D   4      26.134  44.919   7.5690  0.00  0.00     0.000 C
ATOM     63  C4  Z9K D   4      27.172  44.112   8.4380  0.00  0.00     0.000 C
ATOM     64  C5  Z9K D   4      28.190  43.265   7.6580  0.00  0.00     0.000 C
ATOM     65  O5  Z9K D   4      28.381  44.031   6.4400  0.00  0.00     0.000 O
ATOM     66   O  Z9K D   4      24.991  45.093   8.4260  0.00  0.00     0.000 O
ATOM     67   C  Z9K D   4      24.338  46.344   8.2860  0.00  0.00     0.000 C
BRANCH 61 68
ATOM     68   O  Z9K D   4      25.285  45.495   5.4030  0.00  0.00     0.000 O
ATOM     69   O  Z9K D   4      23.360  43.971   6.1250  0.00  0.00     0.000 OA
ATOM     70   S  Z9K D   4      24.191  44.362   5.0260  0.00  0.00     0.000 S
ATOM     71   O  Z9K D   4      24.750  43.481   4.0460  0.00  0.00     0.000 OA
ATOM     72   O  Z9K D   4      23.668  45.522   4.3790  0.00  0.00     0.000 OA
ENDBRANCH 61 68
BRANCH 64 73
ATOM     73   C  Z9K D   4      29.420  42.943   8.5330  0.00  0.00     0.000 C
ATOM     74   O  Z9K D   4      30.551  43.456   8.2870  0.00  0.00     0.000 O
ATOM     75   O  Z9K D   4      29.347  42.170   9.5190  0.00  0.00     0.000 OA
ENDBRANCH 64 73
BRANCH 60 76
ATOM     76  O4  Z9L D   5      27.566  42.895   4.7920  0.00  0.00     0.000 O
BRANCH 76 80
ATOM     77  C1  Z9L D   5      30.055  41.502   1.9930  0.00  0.00     0.000 C
ATOM     78  C2  Z9L D   5      30.504  40.849   3.3870  0.00  0.00     0.000 C
ATOM     79  C3  Z9L D   5      29.212  41.057   4.4590  0.00  0.00     0.000 C
ATOM     80  C4  Z9L D   5      28.760  42.603   4.1130  0.00  0.00     0.000 C
ATOM     81  C5  Z9L D   5      28.528  43.342   2.6990  0.00  0.00     0.000 C
ATOM     82  O5  Z9L D   5      29.585  42.902   1.8340  0.00  0.00     0.000 O
ATOM     83   C  Z9L D   5      28.621  41.066   0.0840  0.00  0.00     0.000 C
ATOM     84   C  Z9L D   5      28.621  41.066   0.0840  0.00  0.00     0.000 C
BRANCH 78 85
ATOM     85   O  Z9L D   5      30.711  39.488   3.1800  0.00  0.00     0.000 O
ATOM     86   O  Z9L D   5      32.423  38.608   3.2400  0.00  0.00     0.000 OA
ATOM     87   S  Z9L D   5      32.190  39.979   3.5740  0.00  0.00     0.000 S
ATOM     88   O  Z9L D   5      32.415  40.061   4.9960  0.00  0.00     0.000 OA
ATOM     89   O  Z9L D   5      32.891  40.730   2.5900  0.00  0.00     0.000 OA
ENDBRANCH 78 85
BRANCH 79 90
ATOM     90   O  Z9L D   5      29.656  41.158   5.7740  0.00  0.00     0.000 O
ATOM     91   S  Z9L D   5      28.713  39.882   5.9080  0.00  0.00     0.000 S
ATOM     92   O  Z9L D   5      28.887  38.707   5.0950  0.00  0.00     0.000 OA
ATOM     93   O  Z9L D   5      27.401  40.300   6.3360  0.00  0.00     0.000 O
ATOM     94   O  Z9L D   5      29.503  39.703   7.0830  0.00  0.00     0.000 OA
ENDBRANCH 79 90
BRANCH 81 95
ATOM     95   C  Z9L D   5      28.155  44.977   2.7370  0.00  0.00     0.000 C
ATOM     96   S  Z9L D   5      27.323  46.480   1.7290  0.00  0.00     0.000 S
ATOM     97   O  Z9L D   5      28.187  45.217   1.3560  0.00  0.00     0.000 O
ATOM     98   O  Z9L D   5      28.210  47.413   2.3740  0.00  0.00     0.000 OA
ATOM     99   O  Z9L D   5      26.025  46.210   2.2490  0.00  0.00     0.000 OA
ATOM    100   O  Z9L D   5      27.404  46.684   0.3040  0.00  0.00     0.000 O
ENDBRANCH 81 95
ENDBRANCH 76 80
ENDBRANCH 60 76
ENDBRANCH 59 63
ENDBRANCH 37 59
ENDBRANCH 36 40
ENDBRANCH 23 36
ENDBRANCH 22 26
ENDBRANCH 1 22
TORSDOF 19
ENDMDL
MODEL 51
REMARK VINA RESULT:      -0.6     22.998     31.777
ROOT
ATOM      1  C1  Z9H D   1      37.849  46.606  14.1870  0.00  0.00     0.000 C
ATOM      2  C2  Z9H D   1      38.136  46.827  15.6910  0.00  0.00     0.000 C
ATOM      3  C3  Z9H D   1      38.981  48.132  15.5670  0.00  0.00     0.000 C
ATOM      4  C4  Z9H D   1      40.166  48.076  14.5170  0.00  0.00     0.000 C
ATOM      5  C5  Z9H D   1      39.992  47.524  13.0460  0.00  0.00     0.000 C
ATOM      6  O5  Z9H D   1      38.942  46.541  13.2300  0.00  0.00     0.000 O
ATOM      7   O  Z9H D   1      39.464  48.570  16.8380  0.00  0.00     0.000 O
ATOM      8   C  Z9H D   1      38.695  49.611  17.4640  0.00  0.00     0.000 C
ATOM      9   O  Z9H D   1      40.655  49.417  14.4090  0.00  0.00     0.000 O
ATOM     10   C  Z9H D   1      41.832  49.708  15.1700  0.00  0.00     0.000 C
ENDROOT
BRANCH 2 11
ATOM     11   O  Z9H D   1      36.884  47.246  16.1690  0.00  0.00     0.000 O
ATOM     12   O  Z9H D   1      35.844  46.277  17.4080  0.00  0.00     0.000 OA
ATOM     13   S  Z9H D   1      37.136  45.887  16.9520  0.00  0.00     0.000 S
ATOM     14   O  Z9H D   1      38.181  46.106  17.9110  0.00  0.00     0.000 OA
ATOM     15   O  Z9H D   1      37.037  44.741  16.0770  0.00  0.00     0.000 O
ENDBRANCH 2 11
BRANCH 5 16
ATOM     16   C  Z9H D   1      41.419  47.137  12.2610  0.00  0.00     0.000 C
ATOM     17   S  Z9H D   1      42.194  46.248  10.6330  0.00  0.00     0.000 S
ATOM     18   O  Z9H D   1      40.939  47.216  10.9400  0.00  0.00     0.000 O
ATOM     19   O  Z9H D   1      42.087  44.928  11.1850  0.00  0.00     0.000 O
ATOM     20   O  Z9H D   1      43.402  46.997  10.6330  0.00  0.00     0.000 OA
ATOM     21   O  Z9H D   1      41.631  46.326   9.3170  0.00  0.00     0.000 OA
ENDBRANCH 5 16
BRANCH 1 22
ATOM     22  O4  GU1 D   2      37.005  47.638  13.5600  0.00  0.00     0.000 O
BRANCH 22 26
ATOM     23  C1  GU1 D   2      33.941  48.301  10.8870  0.00  0.00     0.000 C
ATOM     24  C2  GU1 D   2      33.852  46.988  11.6490  0.00  0.00     0.000 C
ATOM     25  C3  GU1 D   2      34.775  47.035  12.8320  0.00  0.00     0.000 C
ATOM     26  C4  GU1 D   2      36.186  47.415  12.4060  0.00  0.00     0.000 C
ATOM     27  C5  GU1 D   2      36.153  48.691  11.5590  0.00  0.00     0.000 C
ATOM     28  O5  GU1 D   2      35.275  48.529  10.4480  0.00  0.00     0.000 O
ATOM     29   O  GU1 D   2      32.535  46.736  12.1230  0.00  0.00     0.000 O
ATOM     30   C  GU1 D   2      31.773  45.884  11.2790  0.00  0.00     0.000 C
ATOM     31   C  GU1 D   2      34.034  45.601  14.6160  0.00  0.00     0.000 C
ATOM     32   O  GU1 D   2      34.812  45.736  13.4290  0.00  0.00     0.000 O
BRANCH 27 33
ATOM     33   C  GU1 D   2      37.524  49.025  11.0210  0.00  0.00     0.000 C
ATOM     34   O  GU1 D   2      38.099  49.996  11.4690  0.00  0.00     0.000 OA
ATOM     35   O  GU1 D   2      38.039  48.330  10.1590  0.00  0.00     0.000 O
ENDBRANCH 27 33
BRANCH 23 36
ATOM     36  O4  GU6 D   3      33.343  48.419   9.5810  0.00  0.00     0.000 O
BRANCH 36 40
ATOM     37  C1  GU6 D   3      30.625  50.112   7.0420  0.00  0.00     0.000 C
ATOM     38  C2  GU6 D   3      32.043  50.060   6.4860  0.00  0.00     0.000 C
ATOM     39  C3  GU6 D   3      32.899  49.187   7.3660  0.00  0.00     0.000 C
ATOM     40  C4  GU6 D   3      32.335  48.750   8.6470  0.00  0.00     0.000 C
ATOM     41  C5  GU6 D   3      31.491  49.910   9.2700  0.00  0.00     0.000 C
ATOM     42  O5  GU6 D   3      30.674  50.650   8.3550  0.00  0.00     0.000 O
BRANCH 38 43
ATOM     43   O  GU6 D   3      32.040  49.558   5.1630  0.00  0.00     0.000 O
ATOM     44   S  GU6 D   3      32.547  50.542   4.1160  0.00  0.00     0.000 S
ATOM     45   O  GU6 D   3      31.448  51.458   3.7630  0.00  0.00     0.000 OA
ATOM     46   O  GU6 D   3      33.661  51.314   4.6960  0.00  0.00     0.000 O
ATOM     47   O  GU6 D   3      33.009  49.793   2.9520  0.00  0.00     0.000 OA
ENDBRANCH 38 43
BRANCH 39 48
ATOM     48   O  GU6 D   3      34.100  48.620   6.8780  0.00  0.00     0.000 O
ATOM     49   S  GU6 D   3      34.386  47.201   6.3880  0.00  0.00     0.000 S
ATOM     50   O  GU6 D   3      33.452  46.838   5.3160  0.00  0.00     0.000 OA
ATOM     51   O  GU6 D   3      35.763  47.294   5.8840  0.00  0.00     0.000 OA
ATOM     52   O  GU6 D   3      34.242  46.263   7.5240  0.00  0.00     0.000 O
ENDBRANCH 39 48
BRANCH 41 53
ATOM     53   C  GU6 D   3      31.404  50.353  10.7060  0.00  0.00     0.000 C
ATOM     54   O  GU6 D   3      30.562  49.330  11.1710  0.00  0.00     0.000 O
ATOM     55   S  GU6 D   3      30.035  49.350  12.6120  0.00  0.00     0.000 S
ATOM     56   O  GU6 D   3      29.137  50.522  12.7220  0.00  0.00     0.000 O
ATOM     57   O  GU6 D   3      29.296  48.103  12.8570  0.00  0.00     0.000 OA
ATOM     58   O  GU6 D   3      31.207  49.491  13.5050  0.00  0.00     0.000 OA
ENDBRANCH 41 53
BRANCH 37 59
ATOM     59  O4  Z9K D   4      29.704  49.002   7.0670  0.00  0.00     0.000 O
BRANCH 59 63
ATOM     60  C1  Z9K D   4      26.143  49.130   5.4070  0.00  0.00     0.000 C
ATOM     61  C2  Z9K D   4      26.012  50.239   6.4870  0.00  0.00     0.000 C
ATOM     62  C3  Z9K D   4      27.505  50.310   7.0290  0.00  0.00     0.000 C
ATOM     63  C4  Z9K D   4      28.273  48.970   7.3430  0.00  0.00     0.000 C
ATOM     64  C5  Z9K D   4      27.815  47.731   6.5590  0.00  0.00     0.000 C
ATOM     65  O5  Z9K D   4      27.387  48.292   5.2910  0.00  0.00     0.000 O
ATOM     66   O  Z9K D   4      27.639  51.102   8.2240  0.00  0.00     0.000 O
ATOM     67   C  Z9K D   4      27.803  52.491   7.9910  0.00  0.00     0.000 C
BRANCH 61 68
ATOM     68   O  Z9K D   4      25.780  51.445   5.8130  0.00  0.00     0.000 O
ATOM     69   O  Z9K D   4      24.618  51.422   8.0930  0.00  0.00     0.000 OA
ATOM     70   S  Z9K D   4      24.423  51.281   6.6810  0.00  0.00     0.000 S
ATOM     71   O  Z9K D   4      23.577  50.317   6.0460  0.00  0.00     0.000 OA
ATOM     72   O  Z9K D   4      24.240  52.554   6.0630  0.00  0.00     0.000 OA
ENDBRANCH 61 68
BRANCH 64 73
ATOM     73   C  Z9K D   4      28.912  46.645   6.5580  0.00  0.00     0.000 C
ATOM     74   O  Z9K D   4      29.536  46.345   5.5000  0.00  0.00     0.000 O
ATOM     75   O  Z9K D   4      29.230  46.026   7.6030  0.00  0.00     0.000 OA
ENDBRANCH 64 73
BRANCH 60 76
ATOM     76  O4  Z9L D   5      25.246  48.042   5.1280  0.00  0.00     0.000 O
BRANCH 76 80
ATOM     77  C1  Z9L D   5      23.291  46.141   2.2060  0.00  0.00     0.000 C
ATOM     78  C2  Z9L D   5      24.308  45.084   2.8560  0.00  0.00     0.000 C
ATOM     79  C3  Z9L D   5      24.785  45.723   4.3480  0.00  0.00     0.000 C
ATOM     80  C4  Z9L D   5      25.015  47.307   3.9540  0.00  0.00     0.000 C
ATOM     81  C5  Z9L D   5      24.101  48.324   3.0990  0.00  0.00     0.000 C
ATOM     82  O5  Z9L D   5      23.602  47.576   1.9810  0.00  0.00     0.000 O
ATOM     83   C  Z9L D   5      21.003  46.924   2.4130  0.00  0.00     0.000 C
ATOM     84   C  Z9L D   5      21.003  46.924   2.4130  0.00  0.00     0.000 C
BRANCH 78 85
ATOM     85   O  Z9L D   5      23.618  43.895   3.0690  0.00  0.00     0.000 O
ATOM     86   O  Z9L D   5      23.880  42.269   2.0700  0.00  0.00     0.000 OA
ATOM     87   S  Z9L D   5      24.673  43.454   1.9390  0.00  0.00     0.000 S
ATOM     88   O  Z9L D   5      25.968  43.096   2.4620  0.00  0.00     0.000 OA
ATOM     89   O  Z9L D   5      24.424  43.927   0.6210  0.00  0.00     0.000 OA
ENDBRANCH 78 85
BRANCH 79 90
ATOM     90   O  Z9L D   5      26.069  45.307   4.6900  0.00  0.00     0.000 O
ATOM     91   S  Z9L D   5      25.262  44.744   5.9430  0.00  0.00     0.000 S
ATOM     92   O  Z9L D   5      24.144  43.849   5.7990  0.00  0.00     0.000 OA
ATOM     93   O  Z9L D   5      25.307  45.708   7.0130  0.00  0.00     0.000 O
ATOM     94   O  Z9L D   5      26.436  43.940   6.0500  0.00  0.00     0.000 OA
ENDBRANCH 79 90
BRANCH 81 95
ATOM     95   C  Z9L D   5      24.713  49.861   2.8240  0.00  0.00     0.000 C
ATOM     96   S  Z9L D   5      24.452  51.558   1.8150  0.00  0.00     0.000 S
ATOM     97   O  Z9L D   5      24.239  50.027   1.5140  0.00  0.00     0.000 O
ATOM     98   O  Z9L D   5      25.874  51.787   1.8170  0.00  0.00     0.000 OA
ATOM     99   O  Z9L D   5      23.610  52.115   2.8200  0.00  0.00     0.000 OA
ATOM    100   O  Z9L D   5      23.975  51.666   0.4580  0.00  0.00     0.000 O
ENDBRANCH 81 95
ENDBRANCH 76 80
ENDBRANCH 60 76
ENDBRANCH 59 63
ENDBRANCH 37 59
ENDBRANCH 36 40
ENDBRANCH 23 36
ENDBRANCH 22 26
ENDBRANCH 1 22
TORSDOF 19
ENDMDL
MODEL 52
REMARK VINA RESULT:      -0.4    146.846    153.725
ROOT
ATOM      1  C1  Z9H D   1     124.525  48.401 107.3390  0.00  0.00     0.000 C
ATOM      2  C2  Z9H D   1     124.646  48.303 105.8000  0.00  0.00     0.000 C
ATOM      3  C3  Z9H D   1     125.529  47.019 105.7280  0.00  0.00     0.000 C
ATOM      4  C4  Z9H D   1     126.824  47.034 106.6420  0.00  0.00     0.000 C
ATOM      5  C5  Z9H D   1     126.804  47.469 108.1620  0.00  0.00     0.000 C
ATOM      6  O5  Z9H D   1     125.718  48.429 108.1720  0.00  0.00     0.000 O
ATOM      7   O  Z9H D   1     125.876  46.693 104.3810  0.00  0.00     0.000 O
ATOM      8   C  Z9H D   1     125.065  45.679 103.7650  0.00  0.00     0.000 C
ATOM      9   O  Z9H D   1     127.352  45.705 106.5900  0.00  0.00     0.000 O
ATOM     10   C  Z9H D   1     128.442  45.508 105.6840  0.00  0.00     0.000 C
ENDROOT
BRANCH 2 11
ATOM     11   O  Z9H D   1     123.359  47.881 105.4320  0.00  0.00     0.000 O
ATOM     12   O  Z9H D   1     122.137  48.936 104.4560  0.00  0.00     0.000 OA
ATOM     13   S  Z9H D   1     123.462  49.333 104.7940  0.00  0.00     0.000 S
ATOM     14   O  Z9H D   1     124.383  49.277 103.6950  0.00  0.00     0.000 OA
ATOM     15   O  Z9H D   1     123.437  50.363 105.8060  0.00  0.00     0.000 O
ENDBRANCH 2 11
BRANCH 5 16
ATOM     16   C  Z9H D   1     128.300  47.841 108.8120  0.00  0.00     0.000 C
ATOM     17   S  Z9H D   1     129.435  47.715 110.4660  0.00  0.00     0.000 S
ATOM     18   O  Z9H D   1     128.407  46.744 109.6880  0.00  0.00     0.000 O
ATOM     19   O  Z9H D   1     128.831  48.861 111.0830  0.00  0.00     0.000 O
ATOM     20   O  Z9H D   1     130.679  47.763 109.7810  0.00  0.00     0.000 OA
ATOM     21   O  Z9H D   1     129.466  46.585 111.3490  0.00  0.00     0.000 OA
ENDBRANCH 5 16
BRANCH 1 22
ATOM     22  O4  GU1 D   2     123.781  47.299 107.9740  0.00  0.00     0.000 O
BRANCH 22 26
ATOM     23  C1  GU1 D   2     121.218  46.289 111.0360  0.00  0.00     0.000 C
ATOM     24  C2  GU1 D   2     120.992  47.671 110.4430  0.00  0.00     0.000 C
ATOM     25  C3  GU1 D   2     121.702  47.768 109.1240  0.00  0.00     0.000 C
ATOM     26  C4  GU1 D   2     123.167  47.382 109.2650  0.00  0.00     0.000 C
ATOM     27  C5  GU1 D   2     123.287  46.025 109.9660  0.00  0.00     0.000 C
ATOM     28  O5  GU1 D   2     122.609  46.050 111.2190  0.00  0.00     0.000 O
ATOM     29   O  GU1 D   2     119.612  47.938 110.2260  0.00  0.00     0.000 O
ATOM     30   C  GU1 D   2     118.998  48.679 111.2710  0.00  0.00     0.000 C
ATOM     31   C  GU1 D   2     120.660  49.360 107.6510  0.00  0.00     0.000 C
ATOM     32   O  GU1 D   2     121.628  49.123 108.6700  0.00  0.00     0.000 O
BRANCH 27 33
ATOM     33   C  GU1 D   2     124.732  45.671 110.2290  0.00  0.00     0.000 C
ATOM     34   O  GU1 D   2     125.340  46.309 111.0630  0.00  0.00     0.000 OA
ATOM     35   O  GU1 D   2     125.269  44.762 109.6160  0.00  0.00     0.000 O
ENDBRANCH 27 33
BRANCH 23 36
ATOM     36  O4  GU6 D   3     120.850  46.022 112.4040  0.00  0.00     0.000 O
BRANCH 36 40
ATOM     37  C1  GU6 D   3     120.896  45.474 116.4530  0.00  0.00     0.000 C
ATOM     38  C2  GU6 D   3     119.789  44.709 115.7380  0.00  0.00     0.000 C
ATOM     39  C3  GU6 D   3     120.023  44.757 114.2500  0.00  0.00     0.000 C
ATOM     40  C4  GU6 D   3     121.066  45.660 113.7530  0.00  0.00     0.000 C
ATOM     41  C5  GU6 D   3     121.059  46.980 114.5930  0.00  0.00     0.000 C
ATOM     42  O5  GU6 D   3     120.877  46.821 116.0040  0.00  0.00     0.000 O
BRANCH 38 43
ATOM     43   O  GU6 D   3     119.749  43.365 116.1780  0.00  0.00     0.000 O
ATOM     44   S  GU6 D   3     118.394  42.917 116.7090  0.00  0.00     0.000 S
ATOM     45   O  GU6 D   3     118.265  43.370 118.1050  0.00  0.00     0.000 OA
ATOM     46   O  GU6 D   3     117.338  43.542 115.8920  0.00  0.00     0.000 O
ATOM     47   O  GU6 D   3     118.308  41.463 116.6120  0.00  0.00     0.000 OA
ENDBRANCH 38 43
BRANCH 39 48
ATOM     48   O  GU6 D   3     119.427  43.804 113.3910  0.00  0.00     0.000 O
ATOM     49   S  GU6 D   3     120.009  42.524 112.7920  0.00  0.00     0.000 S
ATOM     50   O  GU6 D   3     120.521  41.655 113.8580  0.00  0.00     0.000 OA
ATOM     51   O  GU6 D   3     118.853  41.915 112.1200  0.00  0.00     0.000 OA
ATOM     52   O  GU6 D   3     121.103  42.883 111.8630  0.00  0.00     0.000 O
ENDBRANCH 39 48
BRANCH 41 53
ATOM     53   C  GU6 D   3     121.233  48.400 114.1260  0.00  0.00     0.000 C
ATOM     54   O  GU6 D   3     122.563  48.297 113.6910  0.00  0.00     0.000 O
ATOM     55   S  GU6 D   3     123.320  49.538 113.1980  0.00  0.00     0.000 S
ATOM     56   O  GU6 D   3     123.477  50.434 114.3660  0.00  0.00     0.000 O
ATOM     57   O  GU6 D   3     124.632  49.115 112.6870  0.00  0.00     0.000 OA
ATOM     58   O  GU6 D   3     122.488  50.170 112.1490  0.00  0.00     0.000 OA
ENDBRANCH 41 53
BRANCH 37 59
ATOM     59  O4  Z9K D   4     122.277  45.063 116.5210  0.00  0.00     0.000 O
BRANCH 59 63
ATOM     60  C1  Z9K D   4     125.400  43.071 117.8350  0.00  0.00     0.000 C
ATOM     61  C2  Z9K D   4     124.364  42.779 118.9550  0.00  0.00     0.000 C
ATOM     62  C3  Z9K D   4     123.054  43.430 118.3310  0.00  0.00     0.000 C
ATOM     63  C4  Z9K D   4     123.145  44.860 117.6740  0.00  0.00     0.000 C
ATOM     64  C5  Z9K D   4     124.522  45.263 117.1240  0.00  0.00     0.000 C
ATOM     65  O5  Z9K D   4     125.080  43.994 116.6910  0.00  0.00     0.000 O
ATOM     66   O  Z9K D   4     121.963  43.522 119.2660  0.00  0.00     0.000 O
ATOM     67   C  Z9K D   4     121.171  42.350 119.3580  0.00  0.00     0.000 C
BRANCH 61 68
ATOM     68   O  Z9K D   4     124.148  41.395 118.9660  0.00  0.00     0.000 O
ATOM     69   O  Z9K D   4     123.977  42.376 121.3230  0.00  0.00     0.000 OA
ATOM     70   S  Z9K D   4     124.813  41.641 120.4220  0.00  0.00     0.000 S
ATOM     71   O  Z9K D   4     126.226  41.809 120.2670  0.00  0.00     0.000 OA
ATOM     72   O  Z9K D   4     124.501  40.249 120.4590  0.00  0.00     0.000 OA
ENDBRANCH 61 68
BRANCH 64 73
ATOM     73   C  Z9K D   4     124.389  46.404 116.0940  0.00  0.00     0.000 C
ATOM     74   O  Z9K D   4     124.097  47.582 116.4540  0.00  0.00     0.000 O
ATOM     75   O  Z9K D   4     124.570  46.212 114.8670  0.00  0.00     0.000 OA
ENDBRANCH 64 73
BRANCH 60 76
ATOM     76  O4  Z9L D   5     126.758  43.523 117.9690  0.00  0.00     0.000 O
BRANCH 76 80
ATOM     77  C1  Z9L D   5     130.445  43.222 116.4560  0.00  0.00     0.000 C
ATOM     78  C2  Z9L D   5     129.965  44.735 116.2260  0.00  0.00     0.000 C
ATOM     79  C3  Z9L D   5     128.640  44.984 117.2480  0.00  0.00     0.000 C
ATOM     80  C4  Z9L D   5     127.815  43.572 117.0460  0.00  0.00     0.000 C
ATOM     81  C5  Z9L D   5     128.328  42.043 117.0450  0.00  0.00     0.000 C
ATOM     82  O5  Z9L D   5     129.566  42.033 116.3190  0.00  0.00     0.000 O
ATOM     83   C  Z9L D   5     131.638  41.848 118.0620  0.00  0.00     0.000 C
ATOM     84   C  Z9L D   5     131.638  41.848 118.0620  0.00  0.00     0.000 C
BRANCH 78 85
ATOM     85   O  Z9L D   5     131.002  45.580 116.6100  0.00  0.00     0.000 O
ATOM     86   O  Z9L D   5     132.050  46.662 115.4090  0.00  0.00     0.000 OA
ATOM     87   S  Z9L D   5     130.904  45.890 115.0360  0.00  0.00     0.000 S
ATOM     88   O  Z9L D   5     129.893  46.860 114.6960  0.00  0.00     0.000 OA
ATOM     89   O  Z9L D   5     131.399  44.884 114.1600  0.00  0.00     0.000 OA
ENDBRANCH 78 85
BRANCH 79 90
ATOM     90   O  Z9L D   5     127.762  45.926 116.7180  0.00  0.00     0.000 O
ATOM     91   S  Z9L D   5     128.086  46.619 118.1150  0.00  0.00     0.000 S
ATOM     92   O  Z9L D   5     129.430  46.925 118.5290  0.00  0.00     0.000 OA
ATOM     93   O  Z9L D   5     127.079  46.247 119.0770  0.00  0.00     0.000 O
ATOM     94   O  Z9L D   5     127.592  47.756 117.4070  0.00  0.00     0.000 OA
ENDBRANCH 79 90
BRANCH 81 95
ATOM     95   C  Z9L D   5     127.195  40.853 116.7110  0.00  0.00     0.000 C
ATOM     96   S  Z9L D   5     126.416  39.705 115.2810  0.00  0.00     0.000 S
ATOM     97   O  Z9L D   5     126.958  41.181 115.3680  0.00  0.00     0.000 O
ATOM     98   O  Z9L D   5     125.153  39.686 115.9750  0.00  0.00     0.000 OA
ATOM     99   O  Z9L D   5     127.383  38.678 115.4740  0.00  0.00     0.000 OA
ATOM    100   O  Z9L D   5     126.179  40.105 113.9160  0.00  0.00     0.000 O
ENDBRANCH 81 95
ENDBRANCH 76 80
ENDBRANCH 60 76
ENDBRANCH 59 63
ENDBRANCH 37 59
ENDBRANCH 36 40
ENDBRANCH 23 36
ENDBRANCH 22 26
ENDBRANCH 1 22
TORSDOF 19
ENDMDL
MODEL 53
REMARK VINA RESULT:      -0.4    157.856    162.442
ROOT
ATOM      1  C1  Z9H D   1       4.129 128.044 138.9570  0.00  0.00     0.000 C
ATOM      2  C2  Z9H D   1       3.072 127.247 139.7570  0.00  0.00     0.000 C
ATOM      3  C3  Z9H D   1       2.376 126.534 138.5580  0.00  0.00     0.000 C
ATOM      4  C4  Z9H D   1       1.941 127.482 137.3640  0.00  0.00     0.000 C
ATOM      5  C5  Z9H D   1       2.898 128.570 136.7320  0.00  0.00     0.000 C
ATOM      6  O5  Z9H D   1       3.723 128.923 137.8710  0.00  0.00     0.000 O
ATOM      7   O  Z9H D   1       1.270 125.738 138.9880  0.00  0.00     0.000 O
ATOM      8   C  Z9H D   1       1.542 124.335 139.1380  0.00  0.00     0.000 C
ATOM      9   O  Z9H D   1       1.535 126.610 136.3040  0.00  0.00     0.000 O
ATOM     10   C  Z9H D   1       0.124 126.412 136.1740  0.00  0.00     0.000 C
ENDROOT
BRANCH 2 11
ATOM     11   O  Z9H D   1       3.855 126.255 140.3680  0.00  0.00     0.000 O
ATOM     12   O  Z9H D   1       4.205 126.171 142.2190  0.00  0.00     0.000 OA
ATOM     13   S  Z9H D   1       3.374 127.144 141.5930  0.00  0.00     0.000 S
ATOM     14   O  Z9H D   1       1.970 126.920 141.7900  0.00  0.00     0.000 OA
ATOM     15   O  Z9H D   1       4.019 128.437 141.6000  0.00  0.00     0.000 O
ENDBRANCH 2 11
BRANCH 5 16
ATOM     16   C  Z9H D   1       2.131 129.741 135.8160  0.00  0.00     0.000 C
ATOM     17   S  Z9H D   1       2.312 130.925 134.2010  0.00  0.00     0.000 S
ATOM     18   O  Z9H D   1       2.676 129.395 134.5660  0.00  0.00     0.000 O
ATOM     19   O  Z9H D   1       3.091 131.911 134.8930  0.00  0.00     0.000 O
ATOM     20   O  Z9H D   1       0.915 131.055 133.9720  0.00  0.00     0.000 OA
ATOM     21   O  Z9H D   1       2.923 130.529 132.9660  0.00  0.00     0.000 OA
ENDBRANCH 5 16
BRANCH 1 22
ATOM     22  O4  GU1 D   2       5.137 127.218 138.2690  0.00  0.00     0.000 O
BRANCH 22 26
ATOM     23  C1  GU1 D   2       8.962 127.257 136.7390  0.00  0.00     0.000 C
ATOM     24  C2  GU1 D   2       8.710 128.258 137.8560  0.00  0.00     0.000 C
ATOM     25  C3  GU1 D   2       7.443 127.893 138.5740  0.00  0.00     0.000 C
ATOM     26  C4  GU1 D   2       6.286 127.746 137.5960  0.00  0.00     0.000 C
ATOM     27  C5  GU1 D   2       6.679 126.801 136.4570  0.00  0.00     0.000 C
ATOM     28  O5  GU1 D   2       7.873 127.254 135.8230  0.00  0.00     0.000 O
ATOM     29   O  GU1 D   2       9.769 128.274 138.8050  0.00  0.00     0.000 O
ATOM     30   C  GU1 D   2      10.723 129.304 138.5850  0.00  0.00     0.000 C
ATOM     31   C  GU1 D   2       7.447 128.651 140.8590  0.00  0.00     0.000 C
ATOM     32   O  GU1 D   2       7.130 128.939 139.4990  0.00  0.00     0.000 O
BRANCH 27 33
ATOM     33   C  GU1 D   2       5.596 126.730 135.4070  0.00  0.00     0.000 C
ATOM     34   O  GU1 D   2       4.805 125.811 135.4550  0.00  0.00     0.000 OA
ATOM     35   O  GU1 D   2       5.519 127.582 134.5350  0.00  0.00     0.000 O
ENDBRANCH 27 33
BRANCH 23 36
ATOM     36  O4  GU6 D   3       9.976 127.522 135.7490  0.00  0.00     0.000 O
BRANCH 36 40
ATOM     37  C1  GU6 D   3      11.929 128.726 132.3680  0.00  0.00     0.000 C
ATOM     38  C2  GU6 D   3      12.680 127.674 133.1750  0.00  0.00     0.000 C
ATOM     39  C3  GU6 D   3      11.771 127.106 134.2340  0.00  0.00     0.000 C
ATOM     40  C4  GU6 D   3      10.482 127.771 134.4530  0.00  0.00     0.000 C
ATOM     41  C5  GU6 D   3      10.662 129.319 134.3170  0.00  0.00     0.000 C
ATOM     42  O5  GU6 D   3      11.509 129.757 133.2490  0.00  0.00     0.000 O
BRANCH 38 43
ATOM     43   O  GU6 D   3      13.146 126.639 132.3320  0.00  0.00     0.000 O
ATOM     44   S  GU6 D   3      14.642 126.373 132.4290  0.00  0.00     0.000 S
ATOM     45   O  GU6 D   3      15.349 127.360 131.5950  0.00  0.00     0.000 OA
ATOM     46   O  GU6 D   3      15.058 126.532 133.8340  0.00  0.00     0.000 O
ATOM     47   O  GU6 D   3      14.908 125.010 131.9800  0.00  0.00     0.000 OA
ENDBRANCH 38 43
BRANCH 39 48
ATOM     48   O  GU6 D   3      12.043 125.850 134.8260  0.00  0.00     0.000 O
ATOM     49   S  GU6 D   3      11.462 124.472 134.5140  0.00  0.00     0.000 S
ATOM     50   O  GU6 D   3      11.649 124.155 133.0930  0.00  0.00     0.000 OA
ATOM     51   O  GU6 D   3      12.254 123.576 135.3670  0.00  0.00     0.000 OA
ATOM     52   O  GU6 D   3      10.020 124.472 134.8460  0.00  0.00     0.000 O
ENDBRANCH 39 48
BRANCH 41 53
ATOM     53   C  GU6 D   3      10.056 130.419 135.1450  0.00  0.00     0.000 C
ATOM     54   O  GU6 D   3       8.722 130.249 134.7410  0.00  0.00     0.000 O
ATOM     55   S  GU6 D   3       7.635 131.223 135.2150  0.00  0.00     0.000 S
ATOM     56   O  GU6 D   3       7.945 132.538 134.6070  0.00  0.00     0.000 O
ATOM     57   O  GU6 D   3       6.330 130.730 134.7510  0.00  0.00     0.000 OA
ATOM     58   O  GU6 D   3       7.716 131.287 136.6910  0.00  0.00     0.000 OA
ENDBRANCH 41 53
BRANCH 37 59
ATOM     59  O4  Z9K D   4      10.832 128.455 131.4710  0.00  0.00     0.000 O
BRANCH 59 63
ATOM     60  C1  Z9K D   4       9.103 127.335 128.1240  0.00  0.00     0.000 C
ATOM     61  C2  Z9K D   4      10.577 127.499 127.6610  0.00  0.00     0.000 C
ATOM     62  C3  Z9K D   4      11.301 127.771 129.0500  0.00  0.00     0.000 C
ATOM     63  C4  Z9K D   4      10.659 128.793 130.0640  0.00  0.00     0.000 C
ATOM     64  C5  Z9K D   4       9.138 128.984 129.9570  0.00  0.00     0.000 C
ATOM     65  O5  Z9K D   4       8.678 127.676 129.5260  0.00  0.00     0.000 O
ATOM     66   O  Z9K D   4      12.666 128.202 128.9060  0.00  0.00     0.000 O
ATOM     67   C  Z9K D   4      13.604 127.146 128.7800  0.00  0.00     0.000 C
BRANCH 61 68
ATOM     68   O  Z9K D   4      11.015 126.240 127.2280  0.00  0.00     0.000 O
ATOM     69   O  Z9K D   4      12.100 128.116 125.8670  0.00  0.00     0.000 OA
ATOM     70   S  Z9K D   4      11.084 127.107 125.8620  0.00  0.00     0.000 S
ATOM     71   O  Z9K D   4       9.761 127.255 125.3360  0.00  0.00     0.000 OA
ATOM     72   O  Z9K D   4      11.619 125.848 125.4550  0.00  0.00     0.000 OA
ENDBRANCH 61 68
BRANCH 64 73
ATOM     73   C  Z9K D   4       8.566 129.579 131.2610  0.00  0.00     0.000 C
ATOM     74   O  Z9K D   4       8.770 130.788 131.5750  0.00  0.00     0.000 O
ATOM     75   O  Z9K D   4       7.875 128.893 132.0540  0.00  0.00     0.000 OA
ENDBRANCH 64 73
BRANCH 60 76
ATOM     76  O4  Z9L D   5       7.910 127.858 127.5140  0.00  0.00     0.000 O
BRANCH 76 80
ATOM     77  C1  Z9L D   5       4.136 127.006 126.5160  0.00  0.00     0.000 C
ATOM     78  C2  Z9L D   5       4.079 128.174 127.6130  0.00  0.00     0.000 C
ATOM     79  C3  Z9L D   5       5.631 128.843 127.6910  0.00  0.00     0.000 C
ATOM     80  C4  Z9L D   5       6.562 127.485 127.6410  0.00  0.00     0.000 C
ATOM     81  C5  Z9L D   5       6.485 126.188 126.6850  0.00  0.00     0.000 C
ATOM     82  O5  Z9L D   5       5.093 125.870 126.5470  0.00  0.00     0.000 O
ATOM     83   C  Z9L D   5       4.214 126.682 124.1110  0.00  0.00     0.000 C
ATOM     84   C  Z9L D   5       4.214 126.682 124.1110  0.00  0.00     0.000 C
BRANCH 78 85
ATOM     85   O  Z9L D   5       3.186 129.144 127.1660  0.00  0.00     0.000 O
ATOM     86   O  Z9L D   5       1.470 129.518 127.9570  0.00  0.00     0.000 OA
ATOM     87   S  Z9L D   5       2.443 128.611 128.4870  0.00  0.00     0.000 S
ATOM     88   O  Z9L D   5       2.906 129.230 129.7040  0.00  0.00     0.000 OA
ATOM     89   O  Z9L D   5       1.841 127.325 128.4010  0.00  0.00     0.000 OA
ENDBRANCH 78 85
BRANCH 79 90
ATOM     90   O  Z9L D   5       5.901 129.349 128.9600  0.00  0.00     0.000 O
ATOM     91   S  Z9L D   5       6.105 130.671 128.0950  0.00  0.00     0.000 S
ATOM     92   O  Z9L D   5       5.080 131.192 127.2300  0.00  0.00     0.000 OA
ATOM     93   O  Z9L D   5       7.501 130.811 127.7600  0.00  0.00     0.000 O
ATOM     94   O  Z9L D   5       5.918 131.266 129.3790  0.00  0.00     0.000 OA
ENDBRANCH 79 90
BRANCH 81 95
ATOM     95   C  Z9L D   5       7.563 124.941 126.9940  0.00  0.00     0.000 C
ATOM     96   S  Z9L D   5       7.806 123.191 127.9150  0.00  0.00     0.000 S
ATOM     97   O  Z9L D   5       7.039 124.531 128.2280  0.00  0.00     0.000 O
ATOM     98   O  Z9L D   5       9.209 123.467 128.0850  0.00  0.00     0.000 OA
ATOM     99   O  Z9L D   5       7.326 122.451 126.7970  0.00  0.00     0.000 OA
ATOM    100   O  Z9L D   5       7.253 122.832 129.1980  0.00  0.00     0.000 O
ENDBRANCH 81 95
ENDBRANCH 76 80
ENDBRANCH 60 76
ENDBRANCH 59 63
ENDBRANCH 37 59
ENDBRANCH 36 40
ENDBRANCH 23 36
ENDBRANCH 22 26
ENDBRANCH 1 22
TORSDOF 19
ENDMDL
MODEL 54
REMARK VINA RESULT:      -0.4    133.532    141.563
ROOT
ATOM      1  C1  Z9H D   1     149.774  82.010  23.6800  0.00  0.00     0.000 C
ATOM      2  C2  Z9H D   1     150.650  83.276  23.8380  0.00  0.00     0.000 C
ATOM      3  C3  Z9H D   1     150.490  83.838  22.3920  0.00  0.00     0.000 C
ATOM      4  C4  Z9H D   1     150.768  82.802  21.2250  0.00  0.00     0.000 C
ATOM      5  C5  Z9H D   1     150.156  81.345  21.2000  0.00  0.00     0.000 C
ATOM      6  O5  Z9H D   1     150.043  81.056  22.6160  0.00  0.00     0.000 O
ATOM      7   O  Z9H D   1     151.265  85.023  22.1990  0.00  0.00     0.000 O
ATOM      8   C  Z9H D   1     150.542  86.259  22.3240  0.00  0.00     0.000 C
ATOM      9   O  Z9H D   1     150.357  83.454  20.0190  0.00  0.00     0.000 O
ATOM     10   C  Z9H D   1     151.407  84.045  19.2480  0.00  0.00     0.000 C
ENDROOT
BRANCH 2 11
ATOM     11   O  Z9H D   1     149.839  84.094  24.6400  0.00  0.00     0.000 O
ATOM     12   O  Z9H D   1     150.249  84.576  26.4170  0.00  0.00     0.000 OA
ATOM     13   S  Z9H D   1     151.085  83.787  25.5760  0.00  0.00     0.000 S
ATOM     14   O  Z9H D   1     152.222  84.494  25.0600  0.00  0.00     0.000 OA
ATOM     15   O  Z9H D   1     151.093  82.412  26.0210  0.00  0.00     0.000 O
ENDBRANCH 2 11
BRANCH 5 16
ATOM     16   C  Z9H D   1     150.906  80.279  20.1500  0.00  0.00     0.000 C
ATOM     17   S  Z9H D   1     150.597  78.748  18.8850  0.00  0.00     0.000 S
ATOM     18   O  Z9H D   1     149.848  80.135  19.2340  0.00  0.00     0.000 O
ATOM     19   O  Z9H D   1     150.565  77.766  19.9310  0.00  0.00     0.000 O
ATOM     20   O  Z9H D   1     151.746  78.998  18.0870  0.00  0.00     0.000 OA
ATOM     21   O  Z9H D   1     149.470  78.632  18.0070  0.00  0.00     0.000 OA
ENDBRANCH 5 16
BRANCH 1 22
ATOM     22  O4  GU1 D   2     148.343  82.272  23.4480  0.00  0.00     0.000 O
BRANCH 22 26
ATOM     23  C1  GU1 D   2     144.512  80.952  24.1930  0.00  0.00     0.000 C
ATOM     24  C2  GU1 D   2     145.498  80.728  25.3290  0.00  0.00     0.000 C
ATOM     25  C3  GU1 D   2     146.719  81.572  25.1020  0.00  0.00     0.000 C
ATOM     26  C4  GU1 D   2     147.299  81.329  23.7160  0.00  0.00     0.000 C
ATOM     27  C5  GU1 D   2     146.203  81.478  22.6560  0.00  0.00     0.000 C
ATOM     28  O5  GU1 D   2     145.108  80.613  22.9460  0.00  0.00     0.000 O
ATOM     29   O  GU1 D   2     144.944  81.077  26.5920  0.00  0.00     0.000 O
ATOM     30   C  GU1 D   2     144.414  79.974  27.3120  0.00  0.00     0.000 C
ATOM     31   C  GU1 D   2     147.828  82.132  27.1640  0.00  0.00     0.000 C
ATOM     32   O  GU1 D   2     147.703  81.216  26.0790  0.00  0.00     0.000 O
BRANCH 27 33
ATOM     33   C  GU1 D   2     146.721  81.125  21.2820  0.00  0.00     0.000 C
ATOM     34   O  GU1 D   2     146.883  82.020  20.4780  0.00  0.00     0.000 OA
ATOM     35   O  GU1 D   2     146.973  79.965  20.9930  0.00  0.00     0.000 O
ENDBRANCH 27 33
BRANCH 23 36
ATOM     36  O4  GU6 D   3     143.373  80.081  24.0440  0.00  0.00     0.000 O
BRANCH 36 40
ATOM     37  C1  GU6 D   3     140.822  77.109  22.8800  0.00  0.00     0.000 C
ATOM     38  C2  GU6 D   3     140.121  78.354  23.4090  0.00  0.00     0.000 C
ATOM     39  C3  GU6 D   3     141.119  79.474  23.5510  0.00  0.00     0.000 C
ATOM     40  C4  GU6 D   3     142.540  79.145  23.3920  0.00  0.00     0.000 C
ATOM     41  C5  GU6 D   3     142.827  77.747  24.0330  0.00  0.00     0.000 C
ATOM     42  O5  GU6 D   3     141.838  76.738  23.7990  0.00  0.00     0.000 O
BRANCH 38 43
ATOM     43   O  GU6 D   3     139.077  78.745  22.5390  0.00  0.00     0.000 O
ATOM     44   S  GU6 D   3     137.713  78.866  23.2060  0.00  0.00     0.000 S
ATOM     45   O  GU6 D   3     137.119  77.522  23.3040  0.00  0.00     0.000 OA
ATOM     46   O  GU6 D   3     137.900  79.420  24.5600  0.00  0.00     0.000 O
ATOM     47   O  GU6 D   3     136.878  79.761  22.4110  0.00  0.00     0.000 OA
ENDBRANCH 38 43
BRANCH 39 48
ATOM     48   O  GU6 D   3     140.695  80.823  23.6010  0.00  0.00     0.000 O
ATOM     49   S  GU6 D   3     140.649  81.878  22.4970  0.00  0.00     0.000 S
ATOM     50   O  GU6 D   3     139.867  81.383  21.3570  0.00  0.00     0.000 OA
ATOM     51   O  GU6 D   3     139.979  83.012  23.1480  0.00  0.00     0.000 OA
ATOM     52   O  GU6 D   3     142.031  82.184  22.0680  0.00  0.00     0.000 O
ENDBRANCH 39 48
BRANCH 41 53
ATOM     53   C  GU6 D   3     144.010  77.305  24.8530  0.00  0.00     0.000 C
ATOM     54   O  GU6 D   3     144.989  77.426  23.8540  0.00  0.00     0.000 O
ATOM     55   S  GU6 D   3     146.432  76.978  24.1220  0.00  0.00     0.000 S
ATOM     56   O  GU6 D   3     146.397  75.508  24.3030  0.00  0.00     0.000 O
ATOM     57   O  GU6 D   3     147.258  77.339  22.9600  0.00  0.00     0.000 OA
ATOM     58   O  GU6 D   3     146.880  77.656  25.3580  0.00  0.00     0.000 OA
ENDBRANCH 41 53
BRANCH 37 59
ATOM     59  O4  Z9K D   4     141.371  76.969  21.5530  0.00  0.00     0.000 O
BRANCH 59 63
ATOM     60  C1  Z9K D   4     141.334  76.284  17.6830  0.00  0.00     0.000 C
ATOM     61  C2  Z9K D   4     139.934  75.751  18.0970  0.00  0.00     0.000 C
ATOM     62  C3  Z9K D   4     139.880  76.197  19.6220  0.00  0.00     0.000 C
ATOM     63  C4  Z9K D   4     141.138  75.948  20.5390  0.00  0.00     0.000 C
ATOM     64  C5  Z9K D   4     142.494  75.882  19.8210  0.00  0.00     0.000 C
ATOM     65  O5  Z9K D   4     142.313  76.793  18.7050  0.00  0.00     0.000 O
ATOM     66   O  Z9K D   4     138.777  75.622  20.3440  0.00  0.00     0.000 O
ATOM     67   C  Z9K D   4     137.563  76.346  20.2330  0.00  0.00     0.000 C
BRANCH 61 68
ATOM     68   O  Z9K D   4     138.982  76.531  17.4250  0.00  0.00     0.000 O
ATOM     69   O  Z9K D   4     138.169  74.121  17.7120  0.00  0.00     0.000 OA
ATOM     70   S  Z9K D   4     138.724  75.065  16.7880  0.00  0.00     0.000 S
ATOM     71   O  Z9K D   4     139.744  74.790  15.8230  0.00  0.00     0.000 OA
ATOM     72   O  Z9K D   4     137.696  75.849  16.1820  0.00  0.00     0.000 OA
ENDBRANCH 61 68
BRANCH 64 73
ATOM     73   C  Z9K D   4     143.652  76.140  20.8090  0.00  0.00     0.000 C
ATOM     74   O  Z9K D   4     143.996  75.267  21.6580  0.00  0.00     0.000 O
ATOM     75   O  Z9K D   4     144.297  77.217  20.8040  0.00  0.00     0.000 OA
ENDBRANCH 64 73
BRANCH 60 76
ATOM     76  O4  Z9L D   5     142.335  75.637  16.8790  0.00  0.00     0.000 O
BRANCH 76 80
ATOM     77  C1  Z9L D   5     145.183  76.249  14.1430  0.00  0.00     0.000 C
ATOM     78  C2  Z9L D   5     145.910  75.699  15.4630  0.00  0.00     0.000 C
ATOM     79  C3  Z9L D   5     144.704  75.016  16.4320  0.00  0.00     0.000 C
ATOM     80  C4  Z9L D   5     143.502  76.132  16.2750  0.00  0.00     0.000 C
ATOM     81  C5  Z9L D   5     142.913  76.870  14.9680  0.00  0.00     0.000 C
ATOM     82  O5  Z9L D   5     144.044  77.201  14.1470  0.00  0.00     0.000 O
ATOM     83   C  Z9L D   5     144.196  75.462  12.0700  0.00  0.00     0.000 C
ATOM     84   C  Z9L D   5     144.196  75.462  12.0700  0.00  0.00     0.000 C
BRANCH 78 85
ATOM     85   O  Z9L D   5     146.805  74.704  15.0810  0.00  0.00     0.000 O
ATOM     86   O  Z9L D   5     148.724  74.853  15.1580  0.00  0.00     0.000 OA
ATOM     87   S  Z9L D   5     147.801  75.821  15.6660  0.00  0.00     0.000 S
ATOM     88   O  Z9L D   5     147.955  75.769  17.0990  0.00  0.00     0.000 OA
ATOM     89   O  Z9L D   5     147.995  76.980  14.8640  0.00  0.00     0.000 OA
ENDBRANCH 78 85
BRANCH 79 90
ATOM     90   O  Z9L D   5     145.027  75.107  17.7830  0.00  0.00     0.000 O
ATOM     91   S  Z9L D   5     144.836  73.531  17.6610  0.00  0.00     0.000 S
ATOM     92   O  Z9L D   5     145.576  72.737  16.7150  0.00  0.00     0.000 OA
ATOM     93   O  Z9L D   5     143.485  73.183  18.0250  0.00  0.00     0.000 O
ATOM     94   O  Z9L D   5     145.600  73.573  18.8650  0.00  0.00     0.000 OA
ENDBRANCH 79 90
BRANCH 81 95
ATOM     95   C  Z9L D   5     141.733  78.037  15.2090  0.00  0.00     0.000 C
ATOM     96   S  Z9L D   5     141.394  79.987  15.4310  0.00  0.00     0.000 S
ATOM     97   O  Z9L D   5     142.527  78.985  15.8700  0.00  0.00     0.000 O
ATOM     98   O  Z9L D   5     140.247  79.702  16.2540  0.00  0.00     0.000 OA
ATOM     99   O  Z9L D   5     141.266  80.201  14.0290  0.00  0.00     0.000 OA
ATOM    100   O  Z9L D   5     142.243  80.913  16.1390  0.00  0.00     0.000 O
ENDBRANCH 81 95
ENDBRANCH 76 80
ENDBRANCH 60 76
ENDBRANCH 59 63
ENDBRANCH 37 59
ENDBRANCH 36 40
ENDBRANCH 23 36
ENDBRANCH 22 26
ENDBRANCH 1 22
TORSDOF 19
ENDMDL
MODEL 55
REMARK VINA RESULT:      -0.4    146.056    153.425
ROOT
ATOM      1  C1  Z9H D   1     137.995  41.527 102.7380  0.00  0.00     0.000 C
ATOM      2  C2  Z9H D   1     139.501  41.481 102.3850  0.00  0.00     0.000 C
ATOM      3  C3  Z9H D   1     139.919  40.324 103.3430  0.00  0.00     0.000 C
ATOM      4  C4  Z9H D   1     139.446  40.482 104.8470  0.00  0.00     0.000 C
ATOM      5  C5  Z9H D   1     137.969  40.874 105.2510  0.00  0.00     0.000 C
ATOM      6  O5  Z9H D   1     137.567  41.687 104.1190  0.00  0.00     0.000 O
ATOM      7   O  Z9H D   1     141.325  40.077 103.2880  0.00  0.00     0.000 O
ATOM      8   C  Z9H D   1     141.726  38.982 102.4480  0.00  0.00     0.000 C
ATOM      9   O  Z9H D   1     139.740  39.233 105.4810  0.00  0.00     0.000 O
ATOM     10   C  Z9H D   1     140.946  39.200 106.2500  0.00  0.00     0.000 C
ENDROOT
BRANCH 2 11
ATOM     11   O  Z9H D   1     139.483  40.907 101.1040  0.00  0.00     0.000 O
ATOM     12   O  Z9H D   1     139.965  41.821  99.5270  0.00  0.00     0.000 OA
ATOM     13   S  Z9H D   1     140.025  42.376 100.8370  0.00  0.00     0.000 S
ATOM     14   O  Z9H D   1     141.355  42.470 101.3670  0.00  0.00     0.000 OA
ATOM     15   O  Z9H D   1     138.988  43.368 101.0120  0.00  0.00     0.000 O
ENDBRANCH 2 11
BRANCH 5 16
ATOM     16   C  Z9H D   1     137.785  41.419 106.8230  0.00  0.00     0.000 C
ATOM     17   S  Z9H D   1     136.557  41.421 108.4140  0.00  0.00     0.000 S
ATOM     18   O  Z9H D   1     137.029  40.338 107.3140  0.00  0.00     0.000 O
ATOM     19   O  Z9H D   1     135.739  42.483 107.9020  0.00  0.00     0.000 O
ATOM     20   O  Z9H D   1     137.583  41.622 109.3760  0.00  0.00     0.000 OA
ATOM     21   O  Z9H D   1     135.773  40.298 108.8390  0.00  0.00     0.000 OA
ENDBRANCH 5 16
BRANCH 1 22
ATOM     22  O4  GU1 D   2     137.234  40.324 102.3600  0.00  0.00     0.000 O
BRANCH 22 26
ATOM     23  C1  GU1 D   2     133.605  38.918 101.0100  0.00  0.00     0.000 C
ATOM     24  C2  GU1 D   2     134.015  40.271 100.4490  0.00  0.00     0.000 C
ATOM     25  C3  GU1 D   2     135.479  40.490 100.6990  0.00  0.00     0.000 C
ATOM     26  C4  GU1 D   2     135.814  40.297 102.1710  0.00  0.00     0.000 C
ATOM     27  C5  GU1 D   2     135.267  38.953 102.6620  0.00  0.00     0.000 C
ATOM     28  O5  GU1 D   2     133.868  38.861 102.4070  0.00  0.00     0.000 O
ATOM     29   O  GU1 D   2     133.786  40.358  99.0470  0.00  0.00     0.000 O
ATOM     30   C  GU1 D   2     132.561  40.990  98.7030  0.00  0.00     0.000 C
ATOM     31   C  GU1 D   2     136.466  41.962  99.0710  0.00  0.00     0.000 C
ATOM     32   O  GU1 D   2     135.806  41.832 100.3270  0.00  0.00     0.000 O
BRANCH 27 33
ATOM     33   C  GU1 D   2     135.479  38.787 104.1480  0.00  0.00     0.000 C
ATOM     34   O  GU1 D   2     134.818  39.468 104.9050  0.00  0.00     0.000 OA
ATOM     35   O  GU1 D   2     136.293  37.983 104.5730  0.00  0.00     0.000 O
ENDBRANCH 27 33
BRANCH 23 36
ATOM     36  O4  GU6 D   3     132.208  38.576 101.1170  0.00  0.00     0.000 O
BRANCH 36 40
ATOM     37  C1  GU6 D   3     128.405  37.965 102.4800  0.00  0.00     0.000 C
ATOM     38  C2  GU6 D   3     128.792  37.076 101.3040  0.00  0.00     0.000 C
ATOM     39  C3  GU6 D   3     130.274  37.180 101.0580  0.00  0.00     0.000 C
ATOM     40  C4  GU6 D   3     131.013  38.220 101.7820  0.00  0.00     0.000 C
ATOM     41  C5  GU6 D   3     130.137  39.512 101.8800  0.00  0.00     0.000 C
ATOM     42  O5  GU6 D   3     128.749  39.305 102.1650  0.00  0.00     0.000 O
BRANCH 38 43
ATOM     43   O  GU6 D   3     128.438  35.730 101.5610  0.00  0.00     0.000 O
ATOM     44   S  GU6 D   3     127.548  35.099 100.4980  0.00  0.00     0.000 S
ATOM     45   O  GU6 D   3     126.155  35.506 100.7530  0.00  0.00     0.000 OA
ATOM     46   O  GU6 D   3     127.969  35.596  99.1760  0.00  0.00     0.000 O
ATOM     47   O  GU6 D   3     127.698  33.649 100.5590  0.00  0.00     0.000 OA
ENDBRANCH 38 43
BRANCH 39 48
ATOM     48   O  GU6 D   3     130.964  36.174 100.3420  0.00  0.00     0.000 O
ATOM     49   S  GU6 D   3     131.785  34.992 100.8560  0.00  0.00     0.000 S
ATOM     50   O  GU6 D   3     130.979  34.178 101.7730  0.00  0.00     0.000 OA
ATOM     51   O  GU6 D   3     132.106  34.250  99.6290  0.00  0.00     0.000 OA
ATOM     52   O  GU6 D   3     132.982  35.508 101.5560  0.00  0.00     0.000 O
ENDBRANCH 39 48
BRANCH 41 53
ATOM     53   C  GU6 D   3     130.552  40.951 101.7320  0.00  0.00     0.000 C
ATOM     54   O  GU6 D   3     131.376  41.030 102.8660  0.00  0.00     0.000 O
ATOM     55   S  GU6 D   3     132.004  42.368 103.2800  0.00  0.00     0.000 S
ATOM     56   O  GU6 D   3     130.889  43.256 103.6830  0.00  0.00     0.000 O
ATOM     57   O  GU6 D   3     132.912  42.128 104.4110  0.00  0.00     0.000 OA
ATOM     58   O  GU6 D   3     132.712  42.906 102.0970  0.00  0.00     0.000 OA
ENDBRANCH 41 53
BRANCH 37 59
ATOM     59  O4  Z9K D   4     128.786  37.735 103.8530  0.00  0.00     0.000 O
BRANCH 59 63
ATOM     60  C1  Z9K D   4     128.603  36.143 107.4410  0.00  0.00     0.000 C
ATOM     61  C2  Z9K D   4     127.237  35.700 106.8450  0.00  0.00     0.000 C
ATOM     62  C3  Z9K D   4     127.394  36.186 105.3390  0.00  0.00     0.000 C
ATOM     63  C4  Z9K D   4     127.967  37.627 105.0530  0.00  0.00     0.000 C
ATOM     64  C5  Z9K D   4     128.888  38.214 106.1340  0.00  0.00     0.000 C
ATOM     65  O5  Z9K D   4     129.540  37.036 106.6750  0.00  0.00     0.000 O
ATOM     66   O  Z9K D   4     126.168  36.121 104.5900  0.00  0.00     0.000 O
ATOM     67   C  Z9K D   4     125.903  34.854 104.0090  0.00  0.00     0.000 C
BRANCH 61 68
ATOM     68   O  Z9K D   4     127.239  34.299 106.8090  0.00  0.00     0.000 O
ATOM     69   O  Z9K D   4     124.892  35.211 107.2660  0.00  0.00     0.000 OA
ATOM     70   S  Z9K D   4     126.046  34.606 107.8600  0.00  0.00     0.000 S
ATOM     71   O  Z9K D   4     126.617  34.957 109.1240  0.00  0.00     0.000 OA
ATOM     72   O  Z9K D   4     125.994  33.184 107.7420  0.00  0.00     0.000 OA
ENDBRANCH 61 68
BRANCH 64 73
ATOM     73   C  Z9K D   4     129.762  39.346 105.5540  0.00  0.00     0.000 C
ATOM     74   O  Z9K D   4     129.266  40.473 105.2610  0.00  0.00     0.000 O
ATOM     75   O  Z9K D   4     130.993  39.196 105.3570  0.00  0.00     0.000 OA
ENDBRANCH 64 73
BRANCH 60 76
ATOM     76  O4  Z9L D   5     128.865  36.765 108.7110  0.00  0.00     0.000 O
BRANCH 76 80
ATOM     77  C1  Z9L D   5     131.454  36.971 111.7480  0.00  0.00     0.000 C
ATOM     78  C2  Z9L D   5     131.429  38.416 111.0530  0.00  0.00     0.000 C
ATOM     79  C3  Z9L D   5     130.036  38.470 110.0950  0.00  0.00     0.000 C
ATOM     80  C4  Z9L D   5     130.063  36.971 109.4130  0.00  0.00     0.000 C
ATOM     81  C5  Z9L D   5     130.318  35.519 110.0690  0.00  0.00     0.000 C
ATOM     82  O5  Z9L D   5     131.388  35.684 111.0110  0.00  0.00     0.000 O
ATOM     83   C  Z9L D   5     130.382  35.719 113.5310  0.00  0.00     0.000 C
ATOM     84   C  Z9L D   5     130.382  35.719 113.5310  0.00  0.00     0.000 C
BRANCH 78 85
ATOM     85   O  Z9L D   5     131.330  39.376 112.0560  0.00  0.00     0.000 O
ATOM     86   O  Z9L D   5     132.720  40.619 112.5390  0.00  0.00     0.000 OA
ATOM     87   S  Z9L D   5     132.770  39.717 111.4290  0.00  0.00     0.000 S
ATOM     88   O  Z9L D   5     132.710  40.559 110.2590  0.00  0.00     0.000 OA
ATOM     89   O  Z9L D   5     133.823  38.810 111.7300  0.00  0.00     0.000 OA
ENDBRANCH 78 85
BRANCH 79 90
ATOM     90   O  Z9L D   5     130.210  39.306 108.9950  0.00  0.00     0.000 O
ATOM     91   S  Z9L D   5     128.933  39.993 109.6530  0.00  0.00     0.000 S
ATOM     92   O  Z9L D   5     128.925  40.458 111.0160  0.00  0.00     0.000 OA
ATOM     93   O  Z9L D   5     127.738  39.465 109.0430  0.00  0.00     0.000 O
ATOM     94   O  Z9L D   5     129.379  41.077 108.8400  0.00  0.00     0.000 OA
ENDBRANCH 79 90
BRANCH 81 95
ATOM     95   C  Z9L D   5     130.363  34.203 109.0300  0.00  0.00     0.000 C
ATOM     96   S  Z9L D   5     131.552  33.008 107.9700  0.00  0.00     0.000 S
ATOM     97   O  Z9L D   5     131.538  34.538 108.3410  0.00  0.00     0.000 O
ATOM     98   O  Z9L D   5     130.501  32.806 107.0050  0.00  0.00     0.000 OA
ATOM     99   O  Z9L D   5     131.743  32.108 109.0570  0.00  0.00     0.000 OA
ATOM    100   O  Z9L D   5     132.744  33.415 107.2670  0.00  0.00     0.000 O
ENDBRANCH 81 95
ENDBRANCH 76 80
ENDBRANCH 60 76
ENDBRANCH 59 63
ENDBRANCH 37 59
ENDBRANCH 36 40
ENDBRANCH 23 36
ENDBRANCH 22 26
ENDBRANCH 1 22
TORSDOF 19
ENDMDL
MODEL 56
REMARK VINA RESULT:      -0.4    136.791    140.952
ROOT
ATOM      1  C1  Z9H D   1      12.280 120.303 102.2450  0.00  0.00     0.000 C
ATOM      2  C2  Z9H D   1      12.281 119.555 100.8900  0.00  0.00     0.000 C
ATOM      3  C3  Z9H D   1      12.958 120.663 100.0250  0.00  0.00     0.000 C
ATOM      4  C4  Z9H D   1      12.319 122.108 100.1510  0.00  0.00     0.000 C
ATOM      5  C5  Z9H D   1      11.976 122.783 101.5390  0.00  0.00     0.000 C
ATOM      6  O5  Z9H D   1      11.679 121.623 102.3570  0.00  0.00     0.000 O
ATOM      7   O  Z9H D   1      13.048 120.278  98.6530  0.00  0.00     0.000 O
ATOM      8   C  Z9H D   1      14.321 119.749  98.2430  0.00  0.00     0.000 C
ATOM      9   O  Z9H D   1      13.212 122.989  99.4620  0.00  0.00     0.000 O
ATOM     10   C  Z9H D   1      12.829 123.337  98.1290  0.00  0.00     0.000 C
ENDROOT
BRANCH 2 11
ATOM     11   O  Z9H D   1      13.278 118.588 101.0910  0.00  0.00     0.000 O
ATOM     12   O  Z9H D   1      12.949 116.734 101.2000  0.00  0.00     0.000 OA
ATOM     13   S  Z9H D   1      11.954 117.722 100.9480  0.00  0.00     0.000 S
ATOM     14   O  Z9H D   1      11.524 117.777  99.5800  0.00  0.00     0.000 OA
ATOM     15   O  Z9H D   1      11.092 117.872 102.0980  0.00  0.00     0.000 O
ENDBRANCH 2 11
BRANCH 5 16
ATOM     16   C  Z9H D   1      10.923 124.081 101.4540  0.00  0.00     0.000 C
ATOM     17   S  Z9H D   1      10.507 125.894 102.2150  0.00  0.00     0.000 S
ATOM     18   O  Z9H D   1      11.842 125.095 101.7830  0.00  0.00     0.000 O
ATOM     19   O  Z9H D   1       9.832 125.363 103.3640  0.00  0.00     0.000 O
ATOM     20   O  Z9H D   1       9.826 126.371 101.0620  0.00  0.00     0.000 OA
ATOM     21   O  Z9H D   1      11.492 126.871 102.5760  0.00  0.00     0.000 OA
ENDBRANCH 5 16
BRANCH 1 22
ATOM     22  O4  GU1 D   2      13.616 120.568 102.8070  0.00  0.00     0.000 O
BRANCH 22 26
ATOM     23  C1  GU1 D   2      15.816 120.866 106.2770  0.00  0.00     0.000 C
ATOM     24  C2  GU1 D   2      14.727 119.804 106.2990  0.00  0.00     0.000 C
ATOM     25  C3  GU1 D   2      14.270 119.531 104.8950  0.00  0.00     0.000 C
ATOM     26  C4  GU1 D   2      13.869 120.821 104.1940  0.00  0.00     0.000 C
ATOM     27  C5  GU1 D   2      14.990 121.857 104.3190  0.00  0.00     0.000 C
ATOM     28  O5  GU1 D   2      15.325 122.065 105.6880  0.00  0.00     0.000 O
ATOM     29   O  GU1 D   2      15.188 118.582 106.8620  0.00  0.00     0.000 O
ATOM     30   C  GU1 D   2      14.869 118.425 108.2370  0.00  0.00     0.000 C
ATOM     31   C  GU1 D   2      13.400 117.301 104.6440  0.00  0.00     0.000 C
ATOM     32   O  GU1 D   2      13.130 118.667 104.9510  0.00  0.00     0.000 O
BRANCH 27 33
ATOM     33   C  GU1 D   2      14.573 123.186 103.7370  0.00  0.00     0.000 C
ATOM     34   O  GU1 D   2      15.086 123.549 102.6990  0.00  0.00     0.000 OA
ATOM     35   O  GU1 D   2      13.735 123.875 104.2990  0.00  0.00     0.000 O
ENDBRANCH 27 33
BRANCH 23 36
ATOM     36  O4  GU6 D   3      16.249 121.481 107.5060  0.00  0.00     0.000 O
BRANCH 36 40
ATOM     37  C1  GU6 D   3      16.729 124.016 110.6740  0.00  0.00     0.000 C
ATOM     38  C2  GU6 D   3      17.937 123.128 110.4040  0.00  0.00     0.000 C
ATOM     39  C3  GU6 D   3      17.770 122.439 109.0750  0.00  0.00     0.000 C
ATOM     40  C4  GU6 D   3      16.466 122.544 108.4130  0.00  0.00     0.000 C
ATOM     41  C5  GU6 D   3      15.328 122.475 109.4850  0.00  0.00     0.000 C
ATOM     42  O5  GU6 D   3      15.566 123.204 110.6940  0.00  0.00     0.000 O
BRANCH 38 43
ATOM     43   O  GU6 D   3      19.128 123.892 110.4060  0.00  0.00     0.000 O
ATOM     44   S  GU6 D   3      20.192 123.397 111.3760  0.00  0.00     0.000 S
ATOM     45   O  GU6 D   3      19.873 123.905 112.7210  0.00  0.00     0.000 OA
ATOM     46   O  GU6 D   3      20.167 121.923 111.3900  0.00  0.00     0.000 O
ATOM     47   O  GU6 D   3      21.497 123.871 110.9250  0.00  0.00     0.000 OA
ENDBRANCH 38 43
BRANCH 39 48
ATOM     48   O  GU6 D   3      18.887 121.913 108.3840  0.00  0.00     0.000 O
ATOM     49   S  GU6 D   3      19.706 122.514 107.2420  0.00  0.00     0.000 S
ATOM     50   O  GU6 D   3      20.213 123.836 107.6240  0.00  0.00     0.000 OA
ATOM     51   O  GU6 D   3      20.803 121.551 107.0760  0.00  0.00     0.000 OA
ATOM     52   O  GU6 D   3      18.844 122.629 106.0440  0.00  0.00     0.000 O
ENDBRANCH 39 48
BRANCH 41 53
ATOM     53   C  GU6 D   3      14.005 121.761 109.4180  0.00  0.00     0.000 C
ATOM     54   O  GU6 D   3      13.434 122.513 108.3790  0.00  0.00     0.000 O
ATOM     55   S  GU6 D   3      11.979 122.275 107.9540  0.00  0.00     0.000 S
ATOM     56   O  GU6 D   3      11.129 122.685 109.0960  0.00  0.00     0.000 O
ATOM     57   O  GU6 D   3      11.695 123.100 106.7710  0.00  0.00     0.000 OA
ATOM     58   O  GU6 D   3      11.834 120.828 107.6750  0.00  0.00     0.000 OA
ENDBRANCH 41 53
BRANCH 37 59
ATOM     59  O4  Z9K D   4      16.403 125.216 109.9420  0.00  0.00     0.000 O
BRANCH 59 63
ATOM     60  C1  Z9K D   4      16.583 129.013 108.9440  0.00  0.00     0.000 C
ATOM     61  C2  Z9K D   4      17.358 129.019 110.2910  0.00  0.00     0.000 C
ATOM     62  C3  Z9K D   4      17.442 127.460 110.5970  0.00  0.00     0.000 C
ATOM     63  C4  Z9K D   4      16.153 126.571 110.4150  0.00  0.00     0.000 C
ATOM     64  C5  Z9K D   4      15.115 127.086 109.4060  0.00  0.00     0.000 C
ATOM     65  O5  Z9K D   4      15.936 127.762 108.4170  0.00  0.00     0.000 O
ATOM     66   O  Z9K D   4      17.910 127.166 111.9250  0.00  0.00     0.000 O
ATOM     67   C  Z9K D   4      19.322 127.128 112.0540  0.00  0.00     0.000 C
BRANCH 61 68
ATOM     68   O  Z9K D   4      18.666 129.436 110.0110  0.00  0.00     0.000 O
ATOM     69   O  Z9K D   4      17.913 130.238 112.3220  0.00  0.00     0.000 OA
ATOM     70   S  Z9K D   4      18.129 130.632 110.9620  0.00  0.00     0.000 S
ATOM     71   O  Z9K D   4      17.280 131.491 110.1960  0.00  0.00     0.000 OA
ATOM     72   O  Z9K D   4      19.492 130.998 110.7490  0.00  0.00     0.000 OA
ENDBRANCH 61 68
BRANCH 64 73
ATOM     73   C  Z9K D   4      14.186 125.944 108.9440  0.00  0.00     0.000 C
ATOM     74   O  Z9K D   4      13.303 125.465 109.7130  0.00  0.00     0.000 O
ATOM     75   O  Z9K D   4      14.265 125.453 107.7910  0.00  0.00     0.000 OA
ENDBRANCH 64 73
BRANCH 60 76
ATOM     76  O4  Z9L D   5      15.515 129.880 108.5240  0.00  0.00     0.000 O
BRANCH 76 80
ATOM     77  C1  Z9L D   5      13.967 131.838 105.4030  0.00  0.00     0.000 C
ATOM     78  C2  Z9L D   5      12.888 130.738 105.8490  0.00  0.00     0.000 C
ATOM     79  C3  Z9L D   5      13.320 130.240 107.4070  0.00  0.00     0.000 C
ATOM     80  C4  Z9L D   5      14.955 130.115 107.2570  0.00  0.00     0.000 C
ATOM     81  C5  Z9L D   5      16.033 131.117 106.5980  0.00  0.00     0.000 C
ATOM     82  O5  Z9L D   5      15.436 131.617 105.3930  0.00  0.00     0.000 O
ATOM     83   C  Z9L D   5      14.568 134.157 105.7970  0.00  0.00     0.000 C
ATOM     84   C  Z9L D   5      14.568 134.157 105.7970  0.00  0.00     0.000 C
BRANCH 78 85
ATOM     85   O  Z9L D   5      11.640 131.352 105.8960  0.00  0.00     0.000 O
ATOM     86   O  Z9L D   5      10.182 130.989 104.6900  0.00  0.00     0.000 OA
ATOM     87   S  Z9L D   5      11.421 130.273 104.7260  0.00  0.00     0.000 S
ATOM     88   O  Z9L D   5      11.079 128.957 105.2050  0.00  0.00     0.000 OA
ATOM     89   O  Z9L D   5      12.050 130.552 103.4810  0.00  0.00     0.000 OA
ENDBRANCH 78 85
BRANCH 79 90
ATOM     90   O  Z9L D   5      12.936 128.923 107.6420  0.00  0.00     0.000 O
ATOM     91   S  Z9L D   5      12.171 129.642 108.8400  0.00  0.00     0.000 S
ATOM     92   O  Z9L D   5      11.241 130.718 108.6250  0.00  0.00     0.000 OA
ATOM     93   O  Z9L D   5      12.991 129.596 110.0250  0.00  0.00     0.000 O
ATOM     94   O  Z9L D   5      11.427 128.424 108.7960  0.00  0.00     0.000 OA
ENDBRANCH 79 90
BRANCH 81 95
ATOM     95   C  Z9L D   5      17.629 130.603 106.5460  0.00  0.00     0.000 C
ATOM     96   S  Z9L D   5      19.010 129.697 105.4330  0.00  0.00     0.000 S
ATOM     97   O  Z9L D   5      17.460 129.532 105.6570  0.00  0.00     0.000 O
ATOM     98   O  Z9L D   5      19.656 129.204 106.6220  0.00  0.00     0.000 OA
ATOM     99   O  Z9L D   5      19.421 130.914 104.8170  0.00  0.00     0.000 OA
ATOM    100   O  Z9L D   5      18.778 128.584 104.5450  0.00  0.00     0.000 O
ENDBRANCH 81 95
ENDBRANCH 76 80
ENDBRANCH 60 76
ENDBRANCH 59 63
ENDBRANCH 37 59
ENDBRANCH 36 40
ENDBRANCH 23 36
ENDBRANCH 22 26
ENDBRANCH 1 22
TORSDOF 19
ENDMDL
MODEL 57
REMARK VINA RESULT:      -0.4    113.124    120.483
ROOT
ATOM      1  C1  Z9H D   1      87.881 106.806  36.9380  0.00  0.00     0.000 C
ATOM      2  C2  Z9H D   1      87.869 105.655  35.9040  0.00  0.00     0.000 C
ATOM      3  C3  Z9H D   1      88.610 106.390  34.7450  0.00  0.00     0.000 C
ATOM      4  C4  Z9H D   1      88.036 107.819  34.3710  0.00  0.00     0.000 C
ATOM      5  C5  Z9H D   1      87.702 108.925  35.4490  0.00  0.00     0.000 C
ATOM      6  O5  Z9H D   1      87.340 108.112  36.5930  0.00  0.00     0.000 O
ATOM      7   O  Z9H D   1      88.704 105.571  33.5780  0.00  0.00     0.000 O
ATOM      8   C  Z9H D   1      89.957 104.889  33.4030  0.00  0.00     0.000 C
ATOM      9   O  Z9H D   1      88.980 108.389  33.4580  0.00  0.00     0.000 O
ATOM     10   C  Z9H D   1      88.634 108.293  32.0720  0.00  0.00     0.000 C
ENDROOT
BRANCH 2 11
ATOM     11   O  Z9H D   1      88.817 104.771  36.4420  0.00  0.00     0.000 O
ATOM     12   O  Z9H D   1      88.400 103.077  37.1590  0.00  0.00     0.000 OA
ATOM     13   S  Z9H D   1      87.455 103.963  36.5670  0.00  0.00     0.000 S
ATOM     14   O  Z9H D   1      87.039 103.573  35.2500  0.00  0.00     0.000 OA
ATOM     15   O  Z9H D   1      86.592 104.527  37.5790  0.00  0.00     0.000 O
ENDBRANCH 2 11
BRANCH 5 16
ATOM     16   C  Z9H D   1      86.711 110.162  34.9110  0.00  0.00     0.000 C
ATOM     17   S  Z9H D   1      86.330 112.130  35.0670  0.00  0.00     0.000 S
ATOM     18   O  Z9H D   1      87.652 111.207  34.9830  0.00  0.00     0.000 O
ATOM     19   O  Z9H D   1      85.569 111.984  36.2740  0.00  0.00     0.000 O
ATOM     20   O  Z9H D   1      85.736 112.254  33.7810  0.00  0.00     0.000 OA
ATOM     21   O  Z9H D   1      87.334 113.146  35.1850  0.00  0.00     0.000 OA
ENDBRANCH 5 16
BRANCH 1 22
ATOM     22  O4  GU1 D   2      89.218 107.191  37.4220  0.00  0.00     0.000 O
BRANCH 22 26
ATOM     23  C1  GU1 D   2      91.363 108.530  40.6740  0.00  0.00     0.000 C
ATOM     24  C2  GU1 D   2      90.204 107.603  41.0100  0.00  0.00     0.000 C
ATOM     25  C3  GU1 D   2      89.758 106.894  39.7640  0.00  0.00     0.000 C
ATOM     26  C4  GU1 D   2      89.460 107.887  38.6500  0.00  0.00     0.000 C
ATOM     27  C5  GU1 D   2      90.646 108.838  38.4640  0.00  0.00     0.000 C
ATOM     28  O5  GU1 D   2      90.967 109.482  39.6940  0.00  0.00     0.000 O
ATOM     29   O  GU1 D   2      90.570 106.622  41.9730  0.00  0.00     0.000 O
ATOM     30   C  GU1 D   2      90.213 106.963  43.3050  0.00  0.00     0.000 C
ATOM     31   C  GU1 D   2      88.743 104.766  40.2480  0.00  0.00     0.000 C
ATOM     32   O  GU1 D   2      88.562 106.167  40.0620  0.00  0.00     0.000 O
BRANCH 27 33
ATOM     33   C  GU1 D   2      90.332 109.910  37.4480  0.00  0.00     0.000 C
ATOM     34   O  GU1 D   2      89.545 110.782  37.7530  0.00  0.00     0.000 OA
ATOM     35   O  GU1 D   2      90.864 109.899  36.3480  0.00  0.00     0.000 O
ENDBRANCH 27 33
BRANCH 23 36
ATOM     36  O4  GU6 D   3      91.811 109.502  41.6390  0.00  0.00     0.000 O
BRANCH 36 40
ATOM     37  C1  GU6 D   3      92.391 112.932  43.7820  0.00  0.00     0.000 C
ATOM     38  C2  GU6 D   3      93.547 111.944  43.8720  0.00  0.00     0.000 C
ATOM     39  C3  GU6 D   3      93.361 110.855  42.8480  0.00  0.00     0.000 C
ATOM     40  C4  GU6 D   3      92.077 110.796  42.1420  0.00  0.00     0.000 C
ATOM     41  C5  GU6 D   3      90.919 111.153  43.1310  0.00  0.00     0.000 C
ATOM     42  O5  GU6 D   3      91.180 112.235  44.0320  0.00  0.00     0.000 O
BRANCH 38 43
ATOM     43   O  GU6 D   3      94.782 112.601  43.6590  0.00  0.00     0.000 O
ATOM     44   S  GU6 D   3      95.798 112.408  44.7770  0.00  0.00     0.000 S
ATOM     45   O  GU6 D   3      95.488 113.356  45.8610  0.00  0.00     0.000 OA
ATOM     46   O  GU6 D   3      95.683 111.029  45.2840  0.00  0.00     0.000 O
ATOM     47   O  GU6 D   3      97.136 112.634  44.2390  0.00  0.00     0.000 OA
ENDBRANCH 38 43
BRANCH 39 48
ATOM     48   O  GU6 D   3      94.456 110.069  42.4160  0.00  0.00     0.000 O
ATOM     49   S  GU6 D   3      95.325 110.202  41.1660  0.00  0.00     0.000 S
ATOM     50   O  GU6 D   3      95.904 111.548  41.0920  0.00  0.00     0.000 OA
ATOM     51   O  GU6 D   3      96.367 109.187  41.3760  0.00  0.00     0.000 OA
ATOM     52   O  GU6 D   3      94.491 109.943  39.9720  0.00  0.00     0.000 O
ENDBRANCH 39 48
BRANCH 41 53
ATOM     53   C  GU6 D   3      89.557 110.528  43.2610  0.00  0.00     0.000 C
ATOM     54   O  GU6 D   3      89.053 110.905  42.0060  0.00  0.00     0.000 O
ATOM     55   S  GU6 D   3      87.595 110.609  41.6320  0.00  0.00     0.000 S
ATOM     56   O  GU6 D   3      86.749 111.429  42.5300  0.00  0.00     0.000 O
ATOM     57   O  GU6 D   3      87.385 110.992  40.2280  0.00  0.00     0.000 OA
ATOM     58   O  GU6 D   3      87.367 109.165  41.8590  0.00  0.00     0.000 OA
ENDBRANCH 41 53
BRANCH 37 59
ATOM     59  O4  Z9K D   4      92.151 113.828  42.6760  0.00  0.00     0.000 O
BRANCH 59 63
ATOM     60  C1  Z9K D   4      92.585 117.044  40.4590  0.00  0.00     0.000 C
ATOM     61  C2  Z9K D   4      93.343 117.463  41.7490  0.00  0.00     0.000 C
ATOM     62  C3  Z9K D   4      93.324 116.099  42.5670  0.00  0.00     0.000 C
ATOM     63  C4  Z9K D   4      91.983 115.275  42.6540  0.00  0.00     0.000 C
ATOM     64  C5  Z9K D   4      90.992 115.474  41.4970  0.00  0.00     0.000 C
ATOM     65  O5  Z9K D   4      91.866 115.726  40.3650  0.00  0.00     0.000 O
ATOM     66   O  Z9K D   4      93.756 116.247  43.9310  0.00  0.00     0.000 O
ATOM     67   C  Z9K D   4      95.161 116.176  44.1120  0.00  0.00     0.000 C
BRANCH 61 68
ATOM     68   O  Z9K D   4      94.678 117.686  41.3880  0.00  0.00     0.000 O
ATOM     69   O  Z9K D   4      93.949 119.270  43.2610  0.00  0.00     0.000 OA
ATOM     70   S  Z9K D   4      94.207 119.163  41.8560  0.00  0.00     0.000 S
ATOM     71   O  Z9K D   4      93.423 119.754  40.8150  0.00  0.00     0.000 OA
ATOM     72   O  Z9K D   4      95.593 119.357  41.5770  0.00  0.00     0.000 OA
ENDBRANCH 61 68
BRANCH 64 73
ATOM     73   C  Z9K D   4      89.997 114.297  41.4180  0.00  0.00     0.000 C
ATOM     74   O  Z9K D   4      89.076 114.158  42.2750  0.00  0.00     0.000 O
ATOM     75   O  Z9K D   4      90.057 113.440  40.5030  0.00  0.00     0.000 OA
ENDBRANCH 64 73
BRANCH 60 76
ATOM     76  O4  Z9L D   5      91.581 117.774  39.7350  0.00  0.00     0.000 O
BRANCH 76 80
ATOM     77  C1  Z9L D   5      90.120 118.532  36.0930  0.00  0.00     0.000 C
ATOM     78  C2  Z9L D   5      88.965 117.783  36.9160  0.00  0.00     0.000 C
ATOM     79  C3  Z9L D   5      89.394 117.876  38.5490  0.00  0.00     0.000 C
ATOM     80  C4  Z9L D   5      91.009 117.560  38.4700  0.00  0.00     0.000 C
ATOM     81  C5  Z9L D   5      92.149 118.140  37.4880  0.00  0.00     0.000 C
ATOM     82  O5  Z9L D   5      91.564 118.196  36.1790  0.00  0.00     0.000 O
ATOM     83   C  Z9L D   5      90.923 120.765  35.5820  0.00  0.00     0.000 C
ATOM     84   C  Z9L D   5      90.923 120.765  35.5820  0.00  0.00     0.000 C
BRANCH 78 85
ATOM     85   O  Z9L D   5      87.774 118.475  36.7170  0.00  0.00     0.000 O
ATOM     86   O  Z9L D   5      86.268 117.821  35.7100  0.00  0.00     0.000 OA
ATOM     87   S  Z9L D   5      87.442 117.065  36.0220  0.00  0.00     0.000 S
ATOM     88   O  Z9L D   5      86.999 116.051  36.9470  0.00  0.00     0.000 OA
ATOM     89   O  Z9L D   5      88.069 116.813  34.7700  0.00  0.00     0.000 OA
ENDBRANCH 78 85
BRANCH 79 90
ATOM     90   O  Z9L D   5      88.908 116.785  39.2640  0.00  0.00     0.000 O
ATOM     91   S  Z9L D   5      88.234 117.967  40.0910  0.00  0.00     0.000 S
ATOM     92   O  Z9L D   5      87.391 118.957  39.4730  0.00  0.00     0.000 OA
ATOM     93   O  Z9L D   5      89.075 118.305  41.2120  0.00  0.00     0.000 O
ATOM     94   O  Z9L D   5      87.391 116.893  40.5060  0.00  0.00     0.000 OA
ENDBRANCH 79 90
BRANCH 81 95
ATOM     95   C  Z9L D   5      93.694 117.507  37.6460  0.00  0.00     0.000 C
ATOM     96   S  Z9L D   5      94.974 116.148  36.9500  0.00  0.00     0.000 S
ATOM     97   O  Z9L D   5      93.420 116.207  37.1960  0.00  0.00     0.000 O
ATOM     98   O  Z9L D   5      95.596 116.060  38.2470  0.00  0.00     0.000 OA
ATOM     99   O  Z9L D   5      95.476 117.024  35.9460  0.00  0.00     0.000 OA
ATOM    100   O  Z9L D   5      94.633 114.815  36.5170  0.00  0.00     0.000 O
ENDBRANCH 81 95
ENDBRANCH 76 80
ENDBRANCH 60 76
ENDBRANCH 59 63
ENDBRANCH 37 59
ENDBRANCH 36 40
ENDBRANCH 23 36
ENDBRANCH 22 26
ENDBRANCH 1 22
TORSDOF 19
ENDMDL
MODEL 58
REMARK VINA RESULT:      -0.4    132.783    136.997
ROOT
ATOM      1  C1  Z9H D   1      22.398 139.456  81.4550  0.00  0.00     0.000 C
ATOM      2  C2  Z9H D   1      22.795 140.825  80.8520  0.00  0.00     0.000 C
ATOM      3  C3  Z9H D   1      22.066 141.741  81.8830  0.00  0.00     0.000 C
ATOM      4  C4  Z9H D   1      20.546 141.386  82.1510  0.00  0.00     0.000 C
ATOM      5  C5  Z9H D   1      20.039 139.916  82.4360  0.00  0.00     0.000 C
ATOM      6  O5  Z9H D   1      21.000 139.131  81.6860  0.00  0.00     0.000 O
ATOM      7   O  Z9H D   1      22.202 143.123  81.5460  0.00  0.00     0.000 O
ATOM      8   C  Z9H D   1      23.231 143.832  82.2560  0.00  0.00     0.000 C
ATOM      9   O  Z9H D   1      20.148 142.193  83.2650  0.00  0.00     0.000 O
ATOM     10   C  Z9H D   1      19.430 143.386  82.9370  0.00  0.00     0.000 C
ENDROOT
BRANCH 2 11
ATOM     11   O  Z9H D   1      24.156 140.908  81.1870  0.00  0.00     0.000 O
ATOM     12   O  Z9H D   1      25.561 140.861  79.9300  0.00  0.00     0.000 OA
ATOM     13   S  Z9H D   1      24.176 140.825  79.6010  0.00  0.00     0.000 S
ATOM     14   O  Z9H D   1      23.672 142.063  79.0780  0.00  0.00     0.000 OA
ATOM     15   O  Z9H D   1      23.803 139.511  79.1300  0.00  0.00     0.000 O
ENDBRANCH 2 11
BRANCH 5 16
ATOM     16   C  Z9H D   1      18.392 139.685  82.2510  0.00  0.00     0.000 C
ATOM     17   S  Z9H D   1      16.783 138.743  83.0030  0.00  0.00     0.000 S
ATOM     18   O  Z9H D   1      18.069 139.508  83.6090  0.00  0.00     0.000 O
ATOM     19   O  Z9H D   1      17.077 137.507  82.3360  0.00  0.00     0.000 O
ATOM     20   O  Z9H D   1      15.836 139.684  82.5170  0.00  0.00     0.000 OA
ATOM     21   O  Z9H D   1      16.532 138.551  84.4010  0.00  0.00     0.000 OA
ENDBRANCH 5 16
BRANCH 1 22
ATOM     22  O4  GU1 D   2      22.961 139.181  82.7890  0.00  0.00     0.000 O
BRANCH 22 26
ATOM     23  C1  GU1 D   2      24.446 136.257  85.2820  0.00  0.00     0.000 C
ATOM     24  C2  GU1 D   2      24.773 136.067  83.8090  0.00  0.00     0.000 C
ATOM     25  C3  GU1 D   2      24.524 137.353  83.0750  0.00  0.00     0.000 C
ATOM     26  C4  GU1 D   2      23.117 137.868  83.3400  0.00  0.00     0.000 C
ATOM     27  C5  GU1 D   2      22.854 137.922  84.8480  0.00  0.00     0.000 C
ATOM     28  O5  GU1 D   2      23.087 136.648  85.4410  0.00  0.00     0.000 O
ATOM     29   O  GU1 D   2      26.131 135.697  83.6080  0.00  0.00     0.000 O
ATOM     30   C  GU1 D   2      26.330 134.298  83.4630  0.00  0.00     0.000 C
ATOM     31   C  GU1 D   2      25.895 137.552  81.1070  0.00  0.00     0.000 C
ATOM     32   O  GU1 D   2      24.664 137.108  81.6720  0.00  0.00     0.000 O
BRANCH 27 33
ATOM     33   C  GU1 D   2      21.425 138.315  85.1400  0.00  0.00     0.000 C
ATOM     34   O  GU1 D   2      21.213 139.409  85.6220  0.00  0.00     0.000 OA
ATOM     35   O  GU1 D   2      20.508 137.547  84.8920  0.00  0.00     0.000 O
ENDBRANCH 27 33
BRANCH 23 36
ATOM     36  O4  GU6 D   3      24.365 135.113  86.1550  0.00  0.00     0.000 O
BRANCH 36 40
ATOM     37  C1  GU6 D   3      23.038 131.975  88.4100  0.00  0.00     0.000 C
ATOM     38  C2  GU6 D   3      24.361 132.562  88.8860  0.00  0.00     0.000 C
ATOM     39  C3  GU6 D   3      24.621 133.863  88.1710  0.00  0.00     0.000 C
ATOM     40  C4  GU6 D   3      23.744 134.211  87.0490  0.00  0.00     0.000 C
ATOM     41  C5  GU6 D   3      23.398 132.921  86.2350  0.00  0.00     0.000 C
ATOM     42  O5  GU6 D   3      23.120 131.749  87.0110  0.00  0.00     0.000 O
BRANCH 38 43
ATOM     43   O  GU6 D   3      24.336 132.775  90.2840  0.00  0.00     0.000 O
ATOM     44   S  GU6 D   3      25.468 132.095  91.0440  0.00  0.00     0.000 S
ATOM     45   O  GU6 D   3      25.105 130.684  91.2600  0.00  0.00     0.000 OA
ATOM     46   O  GU6 D   3      26.693 132.166  90.2270  0.00  0.00     0.000 O
ATOM     47   O  GU6 D   3      25.669 132.793  92.3100  0.00  0.00     0.000 OA
ENDBRANCH 38 43
BRANCH 39 48
ATOM     48   O  GU6 D   3      25.521 134.816  88.7040  0.00  0.00     0.000 O
ATOM     49   S  GU6 D   3      25.243 136.070  89.5330  0.00  0.00     0.000 S
ATOM     50   O  GU6 D   3      24.465 135.724  90.7280  0.00  0.00     0.000 OA
ATOM     51   O  GU6 D   3      26.590 136.536  89.8920  0.00  0.00     0.000 OA
ATOM     52   O  GU6 D   3      24.493 137.038  88.7020  0.00  0.00     0.000 O
ENDBRANCH 39 48
BRANCH 41 53
ATOM     53   C  GU6 D   3      23.300 132.738  84.7450  0.00  0.00     0.000 C
ATOM     54   O  GU6 D   3      22.198 133.579  84.5210  0.00  0.00     0.000 O
ATOM     55   S  GU6 D   3      21.573 133.687  83.1240  0.00  0.00     0.000 S
ATOM     56   O  GU6 D   3      20.980 132.364  82.8180  0.00  0.00     0.000 O
ATOM     57   O  GU6 D   3      20.534 134.727  83.1560  0.00  0.00     0.000 OA
ATOM     58   O  GU6 D   3      22.663 134.014  82.1790  0.00  0.00     0.000 OA
ENDBRANCH 41 53
BRANCH 37 59
ATOM     59  O4  Z9K D   4      21.736 132.539  88.6790  0.00  0.00     0.000 O
BRANCH 59 63
ATOM     60  C1  Z9K D   4      18.471 133.326  90.7180  0.00  0.00     0.000 C
ATOM     61  C2  Z9K D   4      19.109 132.210  91.5910  0.00  0.00     0.000 C
ATOM     62  C3  Z9K D   4      20.512 132.026  90.8660  0.00  0.00     0.000 C
ATOM     63  C4  Z9K D   4      20.558 131.941  89.2920  0.00  0.00     0.000 C
ATOM     64  C5  Z9K D   4      19.409 132.636  88.5450  0.00  0.00     0.000 C
ATOM     65  O5  Z9K D   4      19.089 133.753  89.4150  0.00  0.00     0.000 O
ATOM     66   O  Z9K D   4      21.239 130.870  91.3200  0.00  0.00     0.000 O
ATOM     67   C  Z9K D   4      22.023 131.090  92.4810  0.00  0.00     0.000 C
BRANCH 61 68
ATOM     68   O  Z9K D   4      19.384 132.774  92.8440  0.00  0.00     0.000 O
ATOM     69   O  Z9K D   4      18.741 130.306  93.0600  0.00  0.00     0.000 OA
ATOM     70   S  Z9K D   4      18.277 131.652  93.2180  0.00  0.00     0.000 S
ATOM     71   O  Z9K D   4      16.981 132.137  92.8550  0.00  0.00     0.000 OA
ATOM     72   O  Z9K D   4      18.637 132.168  94.4990  0.00  0.00     0.000 OA
ENDBRANCH 61 68
BRANCH 64 73
ATOM     73   C  Z9K D   4      19.803 132.925  87.0810  0.00  0.00     0.000 C
ATOM     74   O  Z9K D   4      19.897 131.992  86.2310  0.00  0.00     0.000 O
ATOM     75   O  Z9K D   4      20.036 134.090  86.6770  0.00  0.00     0.000 OA
ENDBRANCH 64 73
BRANCH 60 76
ATOM     76  O4  Z9L D   5      17.118 133.424  90.2400  0.00  0.00     0.000 O
BRANCH 76 80
ATOM     77  C1  Z9L D   5      14.092 135.942  89.5500  0.00  0.00     0.000 C
ATOM     78  C2  Z9L D   5      14.553 135.360  88.1280  0.00  0.00     0.000 C
ATOM     79  C3  Z9L D   5      15.488 133.987  88.4450  0.00  0.00     0.000 C
ATOM     80  C4  Z9L D   5      16.395 134.509  89.7170  0.00  0.00     0.000 C
ATOM     81  C5  Z9L D   5      15.975 135.304  91.0560  0.00  0.00     0.000 C
ATOM     82  O5  Z9L D   5      15.021 136.298  90.6520  0.00  0.00     0.000 O
ATOM     83   C  Z9L D   5      12.524 135.496  91.3480  0.00  0.00     0.000 C
ATOM     84   C  Z9L D   5      12.524 135.496  91.3480  0.00  0.00     0.000 C
BRANCH 78 85
ATOM     85   O  Z9L D   5      13.413 134.984  87.4250  0.00  0.00     0.000 O
ATOM     86   O  Z9L D   5      12.741 135.868  85.8510  0.00  0.00     0.000 OA
ATOM     87   S  Z9L D   5      13.978 136.172  86.5020  0.00  0.00     0.000 S
ATOM     88   O  Z9L D   5      15.001 135.753  85.5770  0.00  0.00     0.000 OA
ATOM     89   O  Z9L D   5      13.821 137.494  87.0050  0.00  0.00     0.000 OA
ENDBRANCH 78 85
BRANCH 79 90
ATOM     90   O  Z9L D   5      16.445 133.785  87.4540  0.00  0.00     0.000 O
ATOM     91   S  Z9L D   5      15.667 132.398  87.3610  0.00  0.00     0.000 S
ATOM     92   O  Z9L D   5      14.249 132.324  87.1290  0.00  0.00     0.000 OA
ATOM     93   O  Z9L D   5      16.337 131.420  88.1830  0.00  0.00     0.000 O
ATOM     94   O  Z9L D   5      16.306 132.384  86.0850  0.00  0.00     0.000 OA
ENDBRANCH 79 90
BRANCH 81 95
ATOM     95   C  Z9L D   5      17.206 135.755  92.1010  0.00  0.00     0.000 C
ATOM     96   S  Z9L D   5      18.433 137.234  92.6260  0.00  0.00     0.000 S
ATOM     97   O  Z9L D   5      17.827 136.702  91.2730  0.00  0.00     0.000 O
ATOM     98   O  Z9L D   5      19.424 136.274  93.0420  0.00  0.00     0.000 OA
ATOM     99   O  Z9L D   5      17.499 137.782  93.5500  0.00  0.00     0.000 OA
ATOM    100   O  Z9L D   5      19.057 138.170  91.7240  0.00  0.00     0.000 O
ENDBRANCH 81 95
ENDBRANCH 76 80
ENDBRANCH 60 76
ENDBRANCH 59 63
ENDBRANCH 37 59
ENDBRANCH 36 40
ENDBRANCH 23 36
ENDBRANCH 22 26
ENDBRANCH 1 22
TORSDOF 19
ENDMDL
MODEL 59
REMARK VINA RESULT:      -0.4    102.920    107.276
ROOT
ATOM      1  C1  Z9H D   1       4.838 111.378  74.7520  0.00  0.00     0.000 C
ATOM      2  C2  Z9H D   1       4.497 110.820  76.1540  0.00  0.00     0.000 C
ATOM      3  C3  Z9H D   1       5.340 109.510  76.0830  0.00  0.00     0.000 C
ATOM      4  C4  Z9H D   1       5.117 108.628  74.7850  0.00  0.00     0.000 C
ATOM      5  C5  Z9H D   1       5.114 109.229  73.3220  0.00  0.00     0.000 C
ATOM      6  O5  Z9H D   1       4.618 110.569  73.5630  0.00  0.00     0.000 O
ATOM      7   O  Z9H D   1       5.176 108.714  77.2580  0.00  0.00     0.000 O
ATOM      8   C  Z9H D   1       6.215 108.848  78.2420  0.00  0.00     0.000 C
ATOM      9   O  Z9H D   1       6.127 107.616  74.8240  0.00  0.00     0.000 O
ATOM     10   C  Z9H D   1       5.705 106.340  75.3160  0.00  0.00     0.000 C
ENDROOT
BRANCH 2 11
ATOM     11   O  Z9H D   1       5.224 111.677  76.9950  0.00  0.00     0.000 O
ATOM     12   O  Z9H D   1       4.439 112.912  78.1850  0.00  0.00     0.000 OA
ATOM     13   S  Z9H D   1       3.713 112.003  77.3620  0.00  0.00     0.000 S
ATOM     14   O  Z9H D   1       3.170 110.882  78.0740  0.00  0.00     0.000 OA
ATOM     15   O  Z9H D   1       3.046 112.713  76.2950  0.00  0.00     0.000 O
ENDBRANCH 2 11
BRANCH 5 16
ATOM     16   C  Z9H D   1       4.432 108.245  72.1530  0.00  0.00     0.000 C
ATOM     17   S  Z9H D   1       4.582 107.639  70.2430  0.00  0.00     0.000 S
ATOM     18   O  Z9H D   1       5.612 107.936  71.4500  0.00  0.00     0.000 O
ATOM     19   O  Z9H D   1       3.912 108.797  69.7230  0.00  0.00     0.000 O
ATOM     20   O  Z9H D   1       3.935 106.390  70.4450  0.00  0.00     0.000 OA
ATOM     21   O  Z9H D   1       5.819 107.386  69.5630  0.00  0.00     0.000 OA
ENDBRANCH 5 16
BRANCH 1 22
ATOM     22  O4  GU1 D   2       6.250 111.754  74.5620  0.00  0.00     0.000 O
BRANCH 22 26
ATOM     23  C1  GU1 D   2       8.813 114.412  72.7350  0.00  0.00     0.000 C
ATOM     24  C2  GU1 D   2       7.488 115.008  73.1860  0.00  0.00     0.000 C
ATOM     25  C3  GU1 D   2       6.825 114.071  74.1530  0.00  0.00     0.000 C
ATOM     26  C4  GU1 D   2       6.711 112.672  73.5640  0.00  0.00     0.000 C
ATOM     27  C5  GU1 D   2       8.075 112.208  73.0460  0.00  0.00     0.000 C
ATOM     28  O5  GU1 D   2       8.601 113.149  72.1140  0.00  0.00     0.000 O
ATOM     29   O  GU1 D   2       7.662 116.263  73.8320  0.00  0.00     0.000 O
ATOM     30   C  GU1 D   2       7.464 117.382  72.9790  0.00  0.00     0.000 C
ATOM     31   C  GU1 D   2       5.366 115.227  75.6790  0.00  0.00     0.000 C
ATOM     32   O  GU1 D   2       5.508 114.561  74.4270  0.00  0.00     0.000 O
BRANCH 27 33
ATOM     33   C  GU1 D   2       7.970 110.874  72.3470  0.00  0.00     0.000 C
ATOM     34   O  GU1 D   2       8.449 109.899  72.8880  0.00  0.00     0.000 OA
ATOM     35   O  GU1 D   2       7.412 110.782  71.2640  0.00  0.00     0.000 O
ENDBRANCH 27 33
BRANCH 23 36
ATOM     36  O4  GU6 D   3       9.525 114.995  71.6260  0.00  0.00     0.000 O
BRANCH 36 40
ATOM     37  C1  GU6 D   3      11.016 115.828  67.9140  0.00  0.00     0.000 C
ATOM     38  C2  GU6 D   3      11.904 116.302  69.0570  0.00  0.00     0.000 C
ATOM     39  C3  GU6 D   3      11.412 115.715  70.3550  0.00  0.00     0.000 C
ATOM     40  C4  GU6 D   3      10.118 115.025  70.3430  0.00  0.00     0.000 C
ATOM     41  C5  GU6 D   3       9.130 115.781  69.3950  0.00  0.00     0.000 C
ATOM     42  O5  GU6 D   3       9.687 116.258  68.1650  0.00  0.00     0.000 O
BRANCH 38 43
ATOM     43   O  GU6 D   3      13.248 115.922  68.8340  0.00  0.00     0.000 O
ATOM     44   S  GU6 D   3      14.241 117.076  68.8640  0.00  0.00     0.000 S
ATOM     45   O  GU6 D   3      14.221 117.746  67.5520  0.00  0.00     0.000 OA
ATOM     46   O  GU6 D   3      13.824 118.030  69.9080  0.00  0.00     0.000 O
ATOM     47   O  GU6 D   3      15.567 116.548  69.1710  0.00  0.00     0.000 OA
ENDBRANCH 38 43
BRANCH 39 48
ATOM     48   O  GU6 D   3      12.264 115.628  71.4810  0.00  0.00     0.000 O
ATOM     49   S  GU6 D   3      13.082 114.447  72.0030  0.00  0.00     0.000 S
ATOM     50   O  GU6 D   3      13.965 113.939  70.9470  0.00  0.00     0.000 OA
ATOM     51   O  GU6 D   3      13.855 115.039  73.1030  0.00  0.00     0.000 OA
ATOM     52   O  GU6 D   3      12.156 113.381  72.4470  0.00  0.00     0.000 O
ENDBRANCH 39 48
BRANCH 41 53
ATOM     53   C  GU6 D   3       7.665 116.068  69.5870  0.00  0.00     0.000 C
ATOM     54   O  GU6 D   3       7.205 114.742  69.5500  0.00  0.00     0.000 O
ATOM     55   S  GU6 D   3       5.701 114.438  69.5910  0.00  0.00     0.000 S
ATOM     56   O  GU6 D   3       5.124 114.970  68.3340  0.00  0.00     0.000 O
ATOM     57   O  GU6 D   3       5.519 112.982  69.6710  0.00  0.00     0.000 OA
ATOM     58   O  GU6 D   3       5.144 115.138  70.7700  0.00  0.00     0.000 OA
ENDBRANCH 41 53
BRANCH 37 59
ATOM     59  O4  Z9K D   4      10.944 114.471  67.4280  0.00  0.00     0.000 O
BRANCH 59 63
ATOM     60  C1  Z9K D   4      12.036 111.297  65.3830  0.00  0.00     0.000 C
ATOM     61  C2  Z9K D   4      12.921 112.395  64.7310  0.00  0.00     0.000 C
ATOM     62  C3  Z9K D   4      12.613 113.633  65.6800  0.00  0.00     0.000 C
ATOM     63  C4  Z9K D   4      11.120 113.940  66.0830  0.00  0.00     0.000 C
ATOM     64  C5  Z9K D   4      10.160 112.741  66.0740  0.00  0.00     0.000 C
ATOM     65  O5  Z9K D   4      11.023 111.633  66.4440  0.00  0.00     0.000 O
ATOM     66   O  Z9K D   4      13.121 114.880  65.1710  0.00  0.00     0.000 O
ATOM     67   C  Z9K D   4      14.476 115.139  65.5010  0.00  0.00     0.000 C
BRANCH 61 68
ATOM     68   O  Z9K D   4      14.256 112.041  64.9670  0.00  0.00     0.000 O
ATOM     69   O  Z9K D   4      13.992 113.200  62.7000  0.00  0.00     0.000 OA
ATOM     70   S  Z9K D   4      14.162 111.936  63.3530  0.00  0.00     0.000 S
ATOM     71   O  Z9K D   4      13.498 110.718  63.0030  0.00  0.00     0.000 OA
ATOM     72   O  Z9K D   4      15.543 111.671  63.5980  0.00  0.00     0.000 OA
ENDBRANCH 61 68
BRANCH 64 73
ATOM     73   C  Z9K D   4       8.913 113.029  66.9370  0.00  0.00     0.000 C
ATOM     74   O  Z9K D   4       8.021 113.839  66.5500  0.00  0.00     0.000 O
ATOM     75   O  Z9K D   4       8.733 112.471  68.0470  0.00  0.00     0.000 OA
ENDBRANCH 64 73
BRANCH 60 76
ATOM     76  O4  Z9L D   5      11.204 110.318  64.7370  0.00  0.00     0.000 O
BRANCH 76 80
ATOM     77  C1  Z9L D   5       9.859 106.560  64.9410  0.00  0.00     0.000 C
ATOM     78  C2  Z9L D   5       8.588 107.524  65.1080  0.00  0.00     0.000 C
ATOM     79  C3  Z9L D   5       9.065 109.055  64.5710  0.00  0.00     0.000 C
ATOM     80  C4  Z9L D   5      10.570 109.167  65.2330  0.00  0.00     0.000 C
ATOM     81  C5  Z9L D   5      11.786 108.109  65.2710  0.00  0.00     0.000 C
ATOM     82  O5  Z9L D   5      11.197 106.826  65.5300  0.00  0.00     0.000 O
ATOM     83   C  Z9L D   5      11.119 105.384  63.2320  0.00  0.00     0.000 C
ATOM     84   C  Z9L D   5      11.119 105.384  63.2320  0.00  0.00     0.000 C
BRANCH 78 85
ATOM     85   O  Z9L D   5       7.573 107.046  64.2840  0.00  0.00     0.000 O
ATOM     86   O  Z9L D   5       5.936 106.239  64.8980  0.00  0.00     0.000 OA
ATOM     87   S  Z9L D   5       6.924 106.843  65.7400  0.00  0.00     0.000 S
ATOM     88   O  Z9L D   5       6.292 108.028  66.2650  0.00  0.00     0.000 OA
ATOM     89   O  Z9L D   5       7.448 105.779  66.5250  0.00  0.00     0.000 OA
ENDBRANCH 78 85
BRANCH 79 90
ATOM     90   O  Z9L D   5       8.369 110.063  65.2310  0.00  0.00     0.000 O
ATOM     91   S  Z9L D   5       7.985 110.415  63.7260  0.00  0.00     0.000 S
ATOM     92   O  Z9L D   5       7.365 109.460  62.8460  0.00  0.00     0.000 OA
ATOM     93   O  Z9L D   5       8.903 111.405  63.2180  0.00  0.00     0.000 O
ATOM     94   O  Z9L D   5       6.938 111.116  64.3950  0.00  0.00     0.000 OA
ENDBRANCH 79 90
BRANCH 81 95
ATOM     95   C  Z9L D   5      13.159 108.546  66.1300  0.00  0.00     0.000 C
ATOM     96   S  Z9L D   5      14.072 108.445  67.8980  0.00  0.00     0.000 S
ATOM     97   O  Z9L D   5      12.582 108.593  67.4080  0.00  0.00     0.000 O
ATOM     98   O  Z9L D   5      14.719 109.706  67.6440  0.00  0.00     0.000 OA
ATOM     99   O  Z9L D   5      14.707 107.210  67.5840  0.00  0.00     0.000 OA
ATOM    100   O  Z9L D   5      13.425 108.515  69.1850  0.00  0.00     0.000 O
ENDBRANCH 81 95
ENDBRANCH 76 80
ENDBRANCH 60 76
ENDBRANCH 59 63
ENDBRANCH 37 59
ENDBRANCH 36 40
ENDBRANCH 23 36
ENDBRANCH 22 26
ENDBRANCH 1 22
TORSDOF 19
ENDMDL
MODEL 60
REMARK VINA RESULT:      -0.4    179.629    186.038
ROOT
ATOM      1  C1  Z9H D   1     124.758 147.412 107.1070  0.00  0.00     0.000 C
ATOM      2  C2  Z9H D   1     126.106 147.560 107.8520  0.00  0.00     0.000 C
ATOM      3  C3  Z9H D   1     126.542 146.063 107.8210  0.00  0.00     0.000 C
ATOM      4  C4  Z9H D   1     125.452 145.027 108.3200  0.00  0.00     0.000 C
ATOM      5  C5  Z9H D   1     123.947 145.056 107.8350  0.00  0.00     0.000 C
ATOM      6  O5  Z9H D   1     123.755 146.470 107.5780  0.00  0.00     0.000 O
ATOM      7   O  Z9H D   1     127.775 145.860 108.5150  0.00  0.00     0.000 O
ATOM      8   C  Z9H D   1     128.946 145.797 107.6840  0.00  0.00     0.000 C
ATOM      9   O  Z9H D   1     125.973 143.732 108.0050  0.00  0.00     0.000 O
ATOM     10   C  Z9H D   1     126.597 143.037 109.0880  0.00  0.00     0.000 C
ENDROOT
BRANCH 2 11
ATOM     11   O  Z9H D   1     126.905 148.194 106.8880  0.00  0.00     0.000 O
ATOM     12   O  Z9H D   1     127.553 149.959 107.0420  0.00  0.00     0.000 OA
ATOM     13   S  Z9H D   1     126.782 149.287 108.0330  0.00  0.00     0.000 S
ATOM     14   O  Z9H D   1     127.548 148.845 109.1630  0.00  0.00     0.000 OA
ATOM     15   O  Z9H D   1     125.450 149.844 108.0990  0.00  0.00     0.000 O
ENDBRANCH 2 11
BRANCH 5 16
ATOM     16   C  Z9H D   1     122.879 144.191 108.7900  0.00  0.00     0.000 C
ATOM     17   S  Z9H D   1     121.264 142.995 108.7560  0.00  0.00     0.000 S
ATOM     18   O  Z9H D   1     122.615 143.147 107.8850  0.00  0.00     0.000 O
ATOM     19   O  Z9H D   1     120.340 144.086 108.6300  0.00  0.00     0.000 O
ATOM     20   O  Z9H D   1     121.546 142.352 109.9910  0.00  0.00     0.000 OA
ATOM     21   O  Z9H D   1     121.026 141.976 107.7760  0.00  0.00     0.000 OA
ENDBRANCH 5 16
BRANCH 1 22
ATOM     22  O4  GU1 D   2     124.872 146.999 105.6970  0.00  0.00     0.000 O
BRANCH 22 26
ATOM     23  C1  GU1 D   2     123.268 147.408 101.9250  0.00  0.00     0.000 C
ATOM     24  C2  GU1 D   2     123.224 148.666 102.7780  0.00  0.00     0.000 C
ATOM     25  C3  GU1 D   2     124.156 148.509 103.9440  0.00  0.00     0.000 C
ATOM     26  C4  GU1 D   2     123.861 147.226 104.7080  0.00  0.00     0.000 C
ATOM     27  C5  GU1 D   2     123.826 146.037 103.7430  0.00  0.00     0.000 C
ATOM     28  O5  GU1 D   2     122.889 146.273 102.6950  0.00  0.00     0.000 O
ATOM     29   O  GU1 D   2     123.618 149.820 102.0460  0.00  0.00     0.000 O
ATOM     30   C  GU1 D   2     122.530 150.569 101.5230  0.00  0.00     0.000 C
ATOM     31   C  GU1 D   2     124.973 150.628 104.7410  0.00  0.00     0.000 C
ATOM     32   O  GU1 D   2     123.968 149.620 104.8260  0.00  0.00     0.000 O
BRANCH 27 33
ATOM     33   C  GU1 D   2     123.416 144.769 104.4540  0.00  0.00     0.000 C
ATOM     34   O  GU1 D   2     124.251 143.903 104.6170  0.00  0.00     0.000 OA
ATOM     35   O  GU1 D   2     122.272 144.624 104.8550  0.00  0.00     0.000 O
ENDBRANCH 27 33
BRANCH 23 36
ATOM     36  O4  GU6 D   3     122.288 147.205 100.8870  0.00  0.00     0.000 O
BRANCH 36 40
ATOM     37  C1  GU6 D   3     119.009 146.026  98.7540  0.00  0.00     0.000 C
ATOM     38  C2  GU6 D   3     120.223 146.350  97.8930  0.00  0.00     0.000 C
ATOM     39  C3  GU6 D   3     121.438 146.505  98.7710  0.00  0.00     0.000 C
ATOM     40  C4  GU6 D   3     121.228 146.548 100.2220  0.00  0.00     0.000 C
ATOM     41  C5  GU6 D   3     119.920 147.345 100.5380  0.00  0.00     0.000 C
ATOM     42  O5  GU6 D   3     118.808 147.089  99.6720  0.00  0.00     0.000 O
BRANCH 38 43
ATOM     43   O  GU6 D   3     120.444 145.329  96.9390  0.00  0.00     0.000 O
ATOM     44   S  GU6 D   3     120.493 145.816  95.4970  0.00  0.00     0.000 S
ATOM     45   O  GU6 D   3     119.112 145.966  95.0060  0.00  0.00     0.000 OA
ATOM     46   O  GU6 D   3     121.169 147.125  95.4640  0.00  0.00     0.000 O
ATOM     47   O  GU6 D   3     121.239 144.848  94.6990  0.00  0.00     0.000 OA
ENDBRANCH 38 43
BRANCH 39 48
ATOM     48   O  GU6 D   3     122.741 146.380  98.2350  0.00  0.00     0.000 O
ATOM     49   S  GU6 D   3     123.690 145.182  98.2350  0.00  0.00     0.000 S
ATOM     50   O  GU6 D   3     123.031 144.015  97.6370  0.00  0.00     0.000 OA
ATOM     51   O  GU6 D   3     124.809 145.644  97.4030  0.00  0.00     0.000 OA
ATOM     52   O  GU6 D   3     124.084 144.882  99.6290  0.00  0.00     0.000 O
ENDBRANCH 39 48
BRANCH 41 53
ATOM     53   C  GU6 D   3     119.657 148.336 101.6400  0.00  0.00     0.000 C
ATOM     54   O  GU6 D   3     119.780 147.453 102.7250  0.00  0.00     0.000 O
ATOM     55   S  GU6 D   3     119.488 147.931 104.1540  0.00  0.00     0.000 S
ATOM     56   O  GU6 D   3     118.042 148.246 104.2120  0.00  0.00     0.000 O
ATOM     57   O  GU6 D   3     119.822 146.846 105.0870  0.00  0.00     0.000 OA
ATOM     58   O  GU6 D   3     120.306 149.142 104.3870  0.00  0.00     0.000 OA
ENDBRANCH 41 53
BRANCH 37 59
ATOM     59  O4  Z9K D   4     118.811 144.792  99.4760  0.00  0.00     0.000 O
BRANCH 59 63
ATOM     60  C1  Z9K D   4     117.830 141.025 100.0210  0.00  0.00     0.000 C
ATOM     61  C2  Z9K D   4     117.242 141.288  98.6070  0.00  0.00     0.000 C
ATOM     62  C3  Z9K D   4     117.799 142.749  98.3160  0.00  0.00     0.000 C
ATOM     63  C4  Z9K D   4     117.703 143.846  99.4430  0.00  0.00     0.000 C
ATOM     64  C5  Z9K D   4     117.669 143.328 100.8880  0.00  0.00     0.000 C
ATOM     65  O5  Z9K D   4     118.478 142.124 100.8180  0.00  0.00     0.000 O
ATOM     66   O  Z9K D   4     117.212 143.360  97.1530  0.00  0.00     0.000 O
ATOM     67   C  Z9K D   4     117.846 143.023  95.9300  0.00  0.00     0.000 C
BRANCH 61 68
ATOM     68   O  Z9K D   4     117.904 140.429  97.7200  0.00  0.00     0.000 O
ATOM     69   O  Z9K D   4     115.474 140.798  97.0090  0.00  0.00     0.000 OA
ATOM     70   S  Z9K D   4     116.381 139.886  97.6370  0.00  0.00     0.000 S
ATOM     71   O  Z9K D   4     116.104 139.097  98.7990  0.00  0.00     0.000 OA
ATOM     72   O  Z9K D   4     117.048 139.081  96.6650  0.00  0.00     0.000 OA
ENDBRANCH 61 68
BRANCH 64 73
ATOM     73   C  Z9K D   4     118.076 144.438 101.8800  0.00  0.00     0.000 C
ATOM     74   O  Z9K D   4     117.305 145.411 102.1270  0.00  0.00     0.000 O
ATOM     75   O  Z9K D   4     119.178 144.417 102.4810  0.00  0.00     0.000 OA
ENDBRANCH 64 73
BRANCH 60 76
ATOM     76  O4  Z9L D   5     117.189 140.423 101.1580  0.00  0.00     0.000 O
BRANCH 76 80
ATOM     77  C1  Z9L D   5     117.723 137.960 104.2600  0.00  0.00     0.000 C
ATOM     78  C2  Z9L D   5     117.423 139.416 104.8630  0.00  0.00     0.000 C
ATOM     79  C3  Z9L D   5     116.754 140.332 103.6080  0.00  0.00     0.000 C
ATOM     80  C4  Z9L D   5     117.715 139.889 102.3460  0.00  0.00     0.000 C
ATOM     81  C5  Z9L D   5     118.216 138.434 101.8620  0.00  0.00     0.000 C
ATOM     82  O5  Z9L D   5     118.550 137.705 103.0530  0.00  0.00     0.000 O
ATOM     83   C  Z9L D   5     116.581 135.921 103.6050  0.00  0.00     0.000 C
ATOM     84   C  Z9L D   5     116.581 135.921 103.6050  0.00  0.00     0.000 C
BRANCH 78 85
ATOM     85   O  Z9L D   5     116.481 139.278 105.8780  0.00  0.00     0.000 O
ATOM     86   O  Z9L D   5     116.829 139.545 107.7540  0.00  0.00     0.000 OA
ATOM     87   S  Z9L D   5     117.759 139.807 106.6970  0.00  0.00     0.000 S
ATOM     88   O  Z9L D   5     117.907 141.242 106.6780  0.00  0.00     0.000 OA
ATOM     89   O  Z9L D   5     118.818 138.878 106.8900  0.00  0.00     0.000 OA
ENDBRANCH 78 85
BRANCH 79 90
ATOM     90   O  Z9L D   5     117.050 141.685 103.7530  0.00  0.00     0.000 O
ATOM     91   S  Z9L D   5     115.460 141.760 103.7420  0.00  0.00     0.000 S
ATOM     92   O  Z9L D   5     114.646 141.016 104.6680  0.00  0.00     0.000 OA
ATOM     93   O  Z9L D   5     115.004 142.022 102.3990  0.00  0.00     0.000 O
ATOM     94   O  Z9L D   5     115.741 143.022 104.3450  0.00  0.00     0.000 OA
ENDBRANCH 79 90
BRANCH 81 95
ATOM     95   C  Z9L D   5     119.280 138.378 100.5670  0.00  0.00     0.000 C
ATOM     96   S  Z9L D   5     121.199 138.275 100.0420  0.00  0.00     0.000 S
ATOM     97   O  Z9L D   5     120.385 138.971 101.1960  0.00  0.00     0.000 O
ATOM     98   O  Z9L D   5     120.916 139.008  98.8350  0.00  0.00     0.000 OA
ATOM     99   O  Z9L D   5     121.205 136.851 100.0600  0.00  0.00     0.000 OA
ATOM    100   O  Z9L D   5     122.294 138.922 100.7220  0.00  0.00     0.000 O
ENDBRANCH 81 95
ENDBRANCH 76 80
ENDBRANCH 60 76
ENDBRANCH 59 63
ENDBRANCH 37 59
ENDBRANCH 36 40
ENDBRANCH 23 36
ENDBRANCH 22 26
ENDBRANCH 1 22
TORSDOF 19
ENDMDL
MODEL 61
REMARK VINA RESULT:      -0.4    131.438    138.264
ROOT
ATOM      1  C1  Z9H D   1     144.096  85.350  12.3310  0.00  0.00     0.000 C
ATOM      2  C2  Z9H D   1     145.109  86.404  11.8230  0.00  0.00     0.000 C
ATOM      3  C3  Z9H D   1     144.388  87.680  12.3580  0.00  0.00     0.000 C
ATOM      4  C4  Z9H D   1     142.850  87.794  11.9940  0.00  0.00     0.000 C
ATOM      5  C5  Z9H D   1     141.828  86.603  12.1790  0.00  0.00     0.000 C
ATOM      6  O5  Z9H D   1     142.688  85.453  11.9820  0.00  0.00     0.000 O
ATOM      7   O  Z9H D   1     145.078  88.872  11.9780  0.00  0.00     0.000 O
ATOM      8   C  Z9H D   1     145.940  89.432  12.9830  0.00  0.00     0.000 C
ATOM      9   O  Z9H D   1     142.352  88.901  12.7540  0.00  0.00     0.000 O
ATOM     10   C  Z9H D   1     142.235  90.136  12.0410  0.00  0.00     0.000 C
ENDROOT
BRANCH 2 11
ATOM     11   O  Z9H D   1     146.195  86.208  12.6890  0.00  0.00     0.000 O
ATOM     12   O  Z9H D   1     147.868  85.521  12.1520  0.00  0.00     0.000 OA
ATOM     13   S  Z9H D   1     146.774  85.771  11.2760  0.00  0.00     0.000 S
ATOM     14   O  Z9H D   1     146.932  86.947  10.4700  0.00  0.00     0.000 OA
ATOM     15   O  Z9H D   1     146.196  84.526  10.8240  0.00  0.00     0.000 O
ENDBRANCH 2 11
BRANCH 5 16
ATOM     16   C  Z9H D   1     140.389  86.768  11.3410  0.00  0.00     0.000 C
ATOM     17   S  Z9H D   1     138.410  86.422  11.4170  0.00  0.00     0.000 S
ATOM     18   O  Z9H D   1     139.539  86.936  12.4500  0.00  0.00     0.000 O
ATOM     19   O  Z9H D   1     138.538  85.049  11.0180  0.00  0.00     0.000 O
ATOM     20   O  Z9H D   1     138.056  87.465  10.5180  0.00  0.00     0.000 OA
ATOM     21   O  Z9H D   1     137.603  86.565  12.5930  0.00  0.00     0.000 OA
ENDBRANCH 5 16
BRANCH 1 22
ATOM     22  O4  GU1 D   2     144.002  85.240  13.7980  0.00  0.00     0.000 O
BRANCH 22 26
ATOM     23  C1  GU1 D   2     143.411  82.655  16.9500  0.00  0.00     0.000 C
ATOM     24  C2  GU1 D   2     144.172  82.064  15.7730  0.00  0.00     0.000 C
ATOM     25  C3  GU1 D   2     144.651  83.175  14.8830  0.00  0.00     0.000 C
ATOM     26  C4  GU1 D   2     143.500  84.089  14.4870  0.00  0.00     0.000 C
ATOM     27  C5  GU1 D   2     142.737  84.543  15.7350  0.00  0.00     0.000 C
ATOM     28  O5  GU1 D   2     142.301  83.416  16.4900  0.00  0.00     0.000 O
ATOM     29   O  GU1 D   2     145.304  81.313  16.1940  0.00  0.00     0.000 O
ATOM     30   C  GU1 D   2     145.067  79.915  16.2790  0.00  0.00     0.000 C
ATOM     31   C  GU1 D   2     146.630  82.563  13.6570  0.00  0.00     0.000 C
ATOM     32   O  GU1 D   2     145.205  82.597  13.6970  0.00  0.00     0.000 O
BRANCH 27 33
ATOM     33   C  GU1 D   2     141.518  85.353  15.3650  0.00  0.00     0.000 C
ATOM     34   O  GU1 D   2     140.575  84.780  14.8590  0.00  0.00     0.000 OA
ATOM     35   O  GU1 D   2     141.484  86.556  15.5760  0.00  0.00     0.000 O
ENDBRANCH 27 33
BRANCH 23 36
ATOM     36  O4  GU6 D   3     142.642  81.796  17.8150  0.00  0.00     0.000 O
BRANCH 36 40
ATOM     37  C1  GU6 D   3     139.624  79.696  19.5980  0.00  0.00     0.000 C
ATOM     38  C2  GU6 D   3     140.791  80.011  20.5260  0.00  0.00     0.000 C
ATOM     39  C3  GU6 D   3     141.709  81.005  19.8640  0.00  0.00     0.000 C
ATOM     40  C4  GU6 D   3     141.476  81.309  18.4480  0.00  0.00     0.000 C
ATOM     41  C5  GU6 D   3     141.053  80.005  17.6960  0.00  0.00     0.000 C
ATOM     42  O5  GU6 D   3     140.139  79.150  18.3930  0.00  0.00     0.000 O
BRANCH 38 43
ATOM     43   O  GU6 D   3     140.322  80.530  21.7550  0.00  0.00     0.000 O
ATOM     44   S  GU6 D   3     140.802  79.768  22.9840  0.00  0.00     0.000 S
ATOM     45   O  GU6 D   3     139.944  78.584  23.1650  0.00  0.00     0.000 OA
ATOM     46   O  GU6 D   3     142.193  79.335  22.7560  0.00  0.00     0.000 O
ATOM     47   O  GU6 D   3     140.737  80.654  24.1420  0.00  0.00     0.000 OA
ENDBRANCH 38 43
BRANCH 39 48
ATOM     48   O  GU6 D   3     142.606  81.787  20.6290  0.00  0.00     0.000 O
ATOM     49   S  GU6 D   3     142.470  83.222  21.1360  0.00  0.00     0.000 S
ATOM     50   O  GU6 D   3     141.238  83.366  21.9200  0.00  0.00     0.000 OA
ATOM     51   O  GU6 D   3     143.660  83.391  21.9810  0.00  0.00     0.000 OA
ATOM     52   O  GU6 D   3     142.443  84.140  19.9760  0.00  0.00     0.000 O
ENDBRANCH 39 48
BRANCH 41 53
ATOM     53   C  GU6 D   3     141.459  79.525  16.3280  0.00  0.00     0.000 C
ATOM     54   O  GU6 D   3     140.859  80.550  15.5800  0.00  0.00     0.000 O
ATOM     55   S  GU6 D   3     140.867  80.501  14.0460  0.00  0.00     0.000 S
ATOM     56   O  GU6 D   3     140.033  79.342  13.6520  0.00  0.00     0.000 O
ATOM     57   O  GU6 D   3     140.291  81.753  13.5350  0.00  0.00     0.000 OA
ATOM     58   O  GU6 D   3     142.272  80.316  13.6200  0.00  0.00     0.000 OA
ENDBRANCH 41 53
BRANCH 37 59
ATOM     59  O4  Z9K D   4     138.579  80.623  19.2370  0.00  0.00     0.000 O
BRANCH 59 63
ATOM     60  C1  Z9K D   4     135.245  82.664  19.6410  0.00  0.00     0.000 C
ATOM     61  C2  Z9K D   4     135.109  81.634  20.7960  0.00  0.00     0.000 C
ATOM     62  C3  Z9K D   4     136.537  80.935  20.7460  0.00  0.00     0.000 C
ATOM     63  C4  Z9K D   4     137.131  80.504  19.3510  0.00  0.00     0.000 C
ATOM     64  C5  Z9K D   4     136.639  81.299  18.1320  0.00  0.00     0.000 C
ATOM     65  O5  Z9K D   4     136.405  82.622  18.6840  0.00  0.00     0.000 O
ATOM     66   O  Z9K D   4     136.621  79.754  21.5640  0.00  0.00     0.000 O
ATOM     67   C  Z9K D   4     136.945  80.005  22.9220  0.00  0.00     0.000 C
BRANCH 61 68
ATOM     68   O  Z9K D   4     135.070  82.362  21.9930  0.00  0.00     0.000 O
ATOM     69   O  Z9K D   4     133.635  80.249  22.1470  0.00  0.00     0.000 OA
ATOM     70   S  Z9K D   4     133.606  81.670  21.9740  0.00  0.00     0.000 S
ATOM     71   O  Z9K D   4     132.765  82.384  21.0630  0.00  0.00     0.000 OA
ATOM     72   O  Z9K D   4     133.614  82.337  23.2360  0.00  0.00     0.000 OA
ENDBRANCH 61 68
BRANCH 64 73
ATOM     73   C  Z9K D   4     137.617  81.152  16.9480  0.00  0.00     0.000 C
ATOM     74   O  Z9K D   4     138.364  82.109  16.5920  0.00  0.00     0.000 O
ATOM     75   O  Z9K D   4     137.715  80.081  16.3000  0.00  0.00     0.000 OA
ENDBRANCH 64 73
BRANCH 60 76
ATOM     76  O4  Z9L D   5     134.279  83.009  18.6330  0.00  0.00     0.000 O
BRANCH 76 80
ATOM     77  C1  Z9L D   5     132.796  86.010  16.4490  0.00  0.00     0.000 C
ATOM     78  C2  Z9L D   5     133.494  84.987  15.4300  0.00  0.00     0.000 C
ATOM     79  C3  Z9L D   5     133.705  83.533  16.2680  0.00  0.00     0.000 C
ATOM     80  C4  Z9L D   5     134.222  84.085  17.7320  0.00  0.00     0.000 C
ATOM     81  C5  Z9L D   5     133.664  85.274  18.6680  0.00  0.00     0.000 C
ATOM     82  O5  Z9L D   5     133.334  86.359  17.7880  0.00  0.00     0.000 O
ATOM     83   C  Z9L D   5     130.642  86.479  17.4660  0.00  0.00     0.000 C
ATOM     84   C  Z9L D   5     130.642  86.479  17.4660  0.00  0.00     0.000 C
BRANCH 78 85
ATOM     85   O  Z9L D   5     132.624  84.777  14.3640  0.00  0.00     0.000 O
ATOM     86   O  Z9L D   5     132.916  85.387  12.5600  0.00  0.00     0.000 OA
ATOM     87   S  Z9L D   5     133.863  85.491  13.6290  0.00  0.00     0.000 S
ATOM     88   O  Z9L D   5     134.927  84.585  13.2740  0.00  0.00     0.000 OA
ATOM     89   O  Z9L D   5     134.017  86.886  13.8580  0.00  0.00     0.000 OA
ENDBRANCH 78 85
BRANCH 79 90
ATOM     90   O  Z9L D   5     134.813  82.834  15.8000  0.00  0.00     0.000 O
ATOM     91   S  Z9L D   5     133.685  81.736  15.5620  0.00  0.00     0.000 S
ATOM     92   O  Z9L D   5     132.511  81.996  14.7710  0.00  0.00     0.000 OA
ATOM     93   O  Z9L D   5     133.630  80.853  16.7010  0.00  0.00     0.000 O
ATOM     94   O  Z9L D   5     134.685  81.226  14.6810  0.00  0.00     0.000 OA
ENDBRANCH 79 90
BRANCH 81 95
ATOM     95   C  Z9L D   5     134.518  85.613  20.0710  0.00  0.00     0.000 C
ATOM     96   S  Z9L D   5     135.917  86.776  20.8820  0.00  0.00     0.000 S
ATOM     97   O  Z9L D   5     135.685  86.112  19.4730  0.00  0.00     0.000 O
ATOM     98   O  Z9L D   5     136.286  85.716  21.7850  0.00  0.00     0.000 OA
ATOM     99   O  Z9L D   5     134.976  87.776  21.2580  0.00  0.00     0.000 OA
ATOM    100   O  Z9L D   5     137.109  87.246  20.2190  0.00  0.00     0.000 O
ENDBRANCH 81 95
ENDBRANCH 76 80
ENDBRANCH 60 76
ENDBRANCH 59 63
ENDBRANCH 37 59
ENDBRANCH 36 40
ENDBRANCH 23 36
ENDBRANCH 22 26
ENDBRANCH 1 22
TORSDOF 19
ENDMDL
MODEL 62
REMARK VINA RESULT:      -0.4     71.914     76.643
ROOT
ATOM      1  C1  Z9H D   1      41.750  96.117   6.1590  0.00  0.00     0.000 C
ATOM      2  C2  Z9H D   1      42.210  96.869   4.8880  0.00  0.00     0.000 C
ATOM      3  C3  Z9H D   1      42.640  98.207   5.5650  0.00  0.00     0.000 C
ATOM      4  C4  Z9H D   1      41.570  98.848   6.5420  0.00  0.00     0.000 C
ATOM      5  C5  Z9H D   1      40.808  98.020   7.6520  0.00  0.00     0.000 C
ATOM      6  O5  Z9H D   1      40.758  96.705   7.0450  0.00  0.00     0.000 O
ATOM      7   O  Z9H D   1      43.073  99.169   4.6010  0.00  0.00     0.000 O
ATOM      8   C  Z9H D   1      44.496  99.270   4.4280  0.00  0.00     0.000 C
ATOM      9   O  Z9H D   1      42.245  99.923   7.2050  0.00  0.00     0.000 O
ATOM     10   C  Z9H D   1      41.999 101.228   6.6730  0.00  0.00     0.000 C
ENDROOT
BRANCH 2 11
ATOM     11   O  Z9H D   1      43.412  96.213   4.5780  0.00  0.00     0.000 O
ATOM     12   O  Z9H D   1      43.668  95.136   3.0510  0.00  0.00     0.000 OA
ATOM     13   S  Z9H D   1      42.470  95.846   3.3530  0.00  0.00     0.000 S
ATOM     14   O  Z9H D   1      42.280  97.026   2.5600  0.00  0.00     0.000 OA
ATOM     15   O  Z9H D   1      41.424  94.927   3.7400  0.00  0.00     0.000 O
ENDBRANCH 2 11
BRANCH 5 16
ATOM     16   C  Z9H D   1      39.432  98.752   8.2620  0.00  0.00     0.000 C
ATOM     17   S  Z9H D   1      38.328  99.022   9.9190  0.00  0.00     0.000 S
ATOM     18   O  Z9H D   1      39.903  98.990   9.5660  0.00  0.00     0.000 O
ATOM     19   O  Z9H D   1      37.657  97.760   9.7930  0.00  0.00     0.000 O
ATOM     20   O  Z9H D   1      37.756 100.254   9.5010  0.00  0.00     0.000 OA
ATOM     21   O  Z9H D   1      38.866  99.213  11.2340  0.00  0.00     0.000 OA
ENDBRANCH 5 16
BRANCH 1 22
ATOM     22  O4  GU1 D   2      42.824  95.816   7.1230  0.00  0.00     0.000 O
BRANCH 22 26
ATOM     23  C1  GU1 D   2      44.209  93.085   9.8790  0.00  0.00     0.000 C
ATOM     24  C2  GU1 D   2      43.504  92.478   8.6750  0.00  0.00     0.000 C
ATOM     25  C3  GU1 D   2      43.395  93.510   7.5900  0.00  0.00     0.000 C
ATOM     26  C4  GU1 D   2      42.749  94.784   8.1130  0.00  0.00     0.000 C
ATOM     27  C5  GU1 D   2      43.468  95.253   9.3820  0.00  0.00     0.000 C
ATOM     28  O5  GU1 D   2      43.487  94.214  10.3570  0.00  0.00     0.000 O
ATOM     29   O  GU1 D   2      44.210  91.358   8.1540  0.00  0.00     0.000 O
ATOM     30   C  GU1 D   2      43.724  90.106   8.6180  0.00  0.00     0.000 C
ATOM     31   C  GU1 D   2      43.294  92.513   5.4010  0.00  0.00     0.000 C
ATOM     32   O  GU1 D   2      42.577  92.979   6.5420  0.00  0.00     0.000 O
BRANCH 27 33
ATOM     33   C  GU1 D   2      42.774  96.448   9.9930  0.00  0.00     0.000 C
ATOM     34   O  GU1 D   2      41.691  96.282  10.5140  0.00  0.00     0.000 OA
ATOM     35   O  GU1 D   2      43.297  97.551   9.9640  0.00  0.00     0.000 O
ENDBRANCH 27 33
BRANCH 23 36
ATOM     36  O4  GU6 D   3      44.221  92.383  11.1370  0.00  0.00     0.000 O
BRANCH 36 40
ATOM     37  C1  GU6 D   3      43.398  91.083  14.9220  0.00  0.00     0.000 C
ATOM     38  C2  GU6 D   3      44.842  90.860  14.4920  0.00  0.00     0.000 C
ATOM     39  C3  GU6 D   3      45.109  91.607  13.2120  0.00  0.00     0.000 C
ATOM     40  C4  GU6 D   3      43.960  92.194  12.5130  0.00  0.00     0.000 C
ATOM     41  C5  GU6 D   3      42.733  91.229  12.6220  0.00  0.00     0.000 C
ATOM     42  O5  GU6 D   3      42.541  90.605  13.8970  0.00  0.00     0.000 O
BRANCH 38 43
ATOM     43   O  GU6 D   3      45.735  91.295  15.5000  0.00  0.00     0.000 O
ATOM     44   S  GU6 D   3      46.728  90.236  15.9600  0.00  0.00     0.000 S
ATOM     45   O  GU6 D   3      46.060  89.361  16.9390  0.00  0.00     0.000 OA
ATOM     46   O  GU6 D   3      47.141  89.437  14.7920  0.00  0.00     0.000 O
ATOM     47   O  GU6 D   3      47.888  90.901  16.5460  0.00  0.00     0.000 OA
ENDBRANCH 38 43
BRANCH 39 48
ATOM     48   O  GU6 D   3      46.430  91.932  12.8210  0.00  0.00     0.000 O
ATOM     49   S  GU6 D   3      47.211  93.234  12.9920  0.00  0.00     0.000 S
ATOM     50   O  GU6 D   3      47.234  93.628  14.4050  0.00  0.00     0.000 OA
ATOM     51   O  GU6 D   3      48.555  92.880  12.5170  0.00  0.00     0.000 OA
ATOM     52   O  GU6 D   3      46.565  94.291  12.1820  0.00  0.00     0.000 O
ENDBRANCH 39 48
BRANCH 41 53
ATOM     53   C  GU6 D   3      41.712  90.873  11.5760  0.00  0.00     0.000 C
ATOM     54   O  GU6 D   3      41.111  92.136  11.4590  0.00  0.00     0.000 O
ATOM     55   S  GU6 D   3      39.878  92.332  10.5660  0.00  0.00     0.000 S
ATOM     56   O  GU6 D   3      38.777  91.555  11.1820  0.00  0.00     0.000 O
ATOM     57   O  GU6 D   3      39.547  93.764  10.5310  0.00  0.00     0.000 OA
ATOM     58   O  GU6 D   3      40.217  91.803   9.2260  0.00  0.00     0.000 OA
ENDBRANCH 41 53
BRANCH 37 59
ATOM     59  O4  Z9K D   4      42.856  92.338  15.3840  0.00  0.00     0.000 O
BRANCH 59 63
ATOM     60  C1  Z9K D   4      42.090  95.225  17.9400  0.00  0.00     0.000 C
ATOM     61  C2  Z9K D   4      42.598  94.107  18.8920  0.00  0.00     0.000 C
ATOM     62  C3  Z9K D   4      43.078  93.013  17.8430  0.00  0.00     0.000 C
ATOM     63  C4  Z9K D   4      42.150  92.664  16.6170  0.00  0.00     0.000 C
ATOM     64  C5  Z9K D   4      41.189  93.773  16.1620  0.00  0.00     0.000 C
ATOM     65  O5  Z9K D   4      41.929  94.985  16.4630  0.00  0.00     0.000 O
ATOM     66   O  Z9K D   4      43.386  91.743  18.4460  0.00  0.00     0.000 O
ATOM     67   C  Z9K D   4      44.707  91.639  18.9510  0.00  0.00     0.000 C
BRANCH 61 68
ATOM     68   O  Z9K D   4      43.756  94.591  19.5140  0.00  0.00     0.000 O
ATOM     69   O  Z9K D   4      42.431  93.064  21.0830  0.00  0.00     0.000 OA
ATOM     70   S  Z9K D   4      42.746  94.425  20.7690  0.00  0.00     0.000 S
ATOM     71   O  Z9K D   4      41.824  95.519  20.7720  0.00  0.00     0.000 OA
ATOM     72   O  Z9K D   4      43.961  94.826  21.4030  0.00  0.00     0.000 OA
ENDBRANCH 61 68
BRANCH 64 73
ATOM     73   C  Z9K D   4      40.719  93.532  14.7120  0.00  0.00     0.000 C
ATOM     74   O  Z9K D   4      39.904  92.605  14.4320  0.00  0.00     0.000 O
ATOM     75   O  Z9K D   4      41.120  94.245  13.7600  0.00  0.00     0.000 OA
ENDBRANCH 64 73
BRANCH 60 76
ATOM     76  O4  Z9L D   5      40.902  96.027  18.0550  0.00  0.00     0.000 O
BRANCH 76 80
ATOM     77  C1  Z9L D   5      39.378  99.669  17.4380  0.00  0.00     0.000 C
ATOM     78  C2  Z9L D   5      38.590  98.661  16.4720  0.00  0.00     0.000 C
ATOM     79  C3  Z9L D   5      38.895  97.099  17.0470  0.00  0.00     0.000 C
ATOM     80  C4  Z9L D   5      40.504  97.196  17.3870  0.00  0.00     0.000 C
ATOM     81  C5  Z9L D   5      41.351  98.327  18.1640  0.00  0.00     0.000 C
ATOM     82  O5  Z9L D   5      40.833  99.592  17.7250  0.00  0.00     0.000 O
ATOM     83   C  Z9L D   5      39.244 100.643  19.6580  0.00  0.00     0.000 C
ATOM     84   C  Z9L D   5      39.244 100.643  19.6580  0.00  0.00     0.000 C
BRANCH 78 85
ATOM     85   O  Z9L D   5      37.230  98.930  16.5830  0.00  0.00     0.000 O
ATOM     86   O  Z9L D   5      36.139  99.710  15.1990  0.00  0.00     0.000 OA
ATOM     87   S  Z9L D   5      37.507  99.315  15.0470  0.00  0.00     0.000 S
ATOM     88   O  Z9L D   5      37.473  98.187  14.1500  0.00  0.00     0.000 OA
ATOM     89   O  Z9L D   5      38.221 100.523  14.8160  0.00  0.00     0.000 OA
ENDBRANCH 78 85
BRANCH 79 90
ATOM     90   O  Z9L D   5      38.859  96.163  16.0170  0.00  0.00     0.000 O
ATOM     91   S  Z9L D   5      37.742  95.551  16.9740  0.00  0.00     0.000 S
ATOM     92   O  Z9L D   5      36.597  96.308  17.4050  0.00  0.00     0.000 OA
ATOM     93   O  Z9L D   5      38.341  94.559  17.8320  0.00  0.00     0.000 O
ATOM     94   O  Z9L D   5      37.383  94.895  15.7580  0.00  0.00     0.000 OA
ENDBRANCH 79 90
BRANCH 81 95
ATOM     95   C  Z9L D   5      43.014  98.127  18.2380  0.00  0.00     0.000 C
ATOM     96   S  Z9L D   5      44.748  98.588  17.3730  0.00  0.00     0.000 S
ATOM     97   O  Z9L D   5      43.290  98.271  16.8710  0.00  0.00     0.000 O
ATOM     98   O  Z9L D   5      45.312  97.340  17.8220  0.00  0.00     0.000 OA
ATOM     99   O  Z9L D   5      44.896  99.783  18.1330  0.00  0.00     0.000 OA
ATOM    100   O  Z9L D   5      44.976  98.706  15.9540  0.00  0.00     0.000 O
ENDBRANCH 81 95
ENDBRANCH 76 80
ENDBRANCH 60 76
ENDBRANCH 59 63
ENDBRANCH 37 59
ENDBRANCH 36 40
ENDBRANCH 23 36
ENDBRANCH 22 26
ENDBRANCH 1 22
TORSDOF 19
ENDMDL
MODEL 63
REMARK VINA RESULT:      -0.4    122.867    128.408
ROOT
ATOM      1  C1  Z9H D   1      69.109 125.003  73.6120  0.00  0.00     0.000 C
ATOM      2  C2  Z9H D   1      70.550 125.320  73.1490  0.00  0.00     0.000 C
ATOM      3  C3  Z9H D   1      71.296 124.232  73.9820  0.00  0.00     0.000 C
ATOM      4  C4  Z9H D   1      70.933 124.190  75.5230  0.00  0.00     0.000 C
ATOM      5  C5  Z9H D   1      69.447 124.213  76.0620  0.00  0.00     0.000 C
ATOM      6  O5  Z9H D   1      68.778 124.980  75.0290  0.00  0.00     0.000 O
ATOM      7   O  Z9H D   1      72.711 124.314  73.8060  0.00  0.00     0.000 O
ATOM      8   C  Z9H D   1      73.269 123.390  72.8570  0.00  0.00     0.000 C
ATOM      9   O  Z9H D   1      71.549 123.005  76.0360  0.00  0.00     0.000 O
ATOM     10   C  Z9H D   1      72.796 123.199  76.7110  0.00  0.00     0.000 C
ENDROOT
BRANCH 2 11
ATOM     11   O  Z9H D   1      70.547 124.834  71.8320  0.00  0.00     0.000 O
ATOM     12   O  Z9H D   1      70.689 125.925  70.3000  0.00  0.00     0.000 OA
ATOM     13   S  Z9H D   1      70.739 126.400  71.6410  0.00  0.00     0.000 S
ATOM     14   O  Z9H D   1      72.059 126.749  72.0840  0.00  0.00     0.000 OA
ATOM     15   O  Z9H D   1      69.534 127.128  71.9630  0.00  0.00     0.000 O
ENDBRANCH 2 11
BRANCH 5 16
ATOM     16   C  Z9H D   1      69.286 124.608  77.6810  0.00  0.00     0.000 C
ATOM     17   S  Z9H D   1      68.233 124.237  79.3520  0.00  0.00     0.000 S
ATOM     18   O  Z9H D   1      68.835 123.357  78.1400  0.00  0.00     0.000 O
ATOM     19   O  Z9H D   1      67.159 125.114  78.9840  0.00  0.00     0.000 O
ATOM     20   O  Z9H D   1      69.270 124.608  80.2500  0.00  0.00     0.000 OA
ATOM     21   O  Z9H D   1      67.757 122.943  79.7440  0.00  0.00     0.000 OA
ENDBRANCH 5 16
BRANCH 1 22
ATOM     22  O4  GU1 D   2      68.601 123.683  73.1980  0.00  0.00     0.000 O
BRANCH 22 26
ATOM     23  C1  GU1 D   2      65.267 121.582  71.9980  0.00  0.00     0.000 C
ATOM     24  C2  GU1 D   2      65.319 123.026  71.5220  0.00  0.00     0.000 C
ATOM     25  C3  GU1 D   2      66.715 123.553  71.6850  0.00  0.00     0.000 C
ATOM     26  C4  GU1 D   2      67.211 123.348  73.1090  0.00  0.00     0.000 C
ATOM     27  C5  GU1 D   2      67.019 121.887  73.5250  0.00  0.00     0.000 C
ATOM     28  O5  GU1 D   2      65.658 121.497  73.3630  0.00  0.00     0.000 O
ATOM     29   O  GU1 D   2      64.954 123.148  70.1520  0.00  0.00     0.000 O
ATOM     30   C  GU1 D   2      63.595 123.506  69.9490  0.00  0.00     0.000 C
ATOM     31   C  GU1 D   2      67.206 125.312  70.1160  0.00  0.00     0.000 C
ATOM     32   O  GU1 D   2      66.703 124.956  71.4020  0.00  0.00     0.000 O
BRANCH 27 33
ATOM     33   C  GU1 D   2      67.391 121.678  74.9740  0.00  0.00     0.000 C
ATOM     34   O  GU1 D   2      66.664 122.140  75.8290  0.00  0.00     0.000 OA
ATOM     35   O  GU1 D   2      68.399 121.056  75.2730  0.00  0.00     0.000 O
ENDBRANCH 27 33
BRANCH 23 36
ATOM     36  O4  GU6 D   3      63.996 120.926  72.1760  0.00  0.00     0.000 O
BRANCH 36 40
ATOM     37  C1  GU6 D   3      60.557 119.380  73.7490  0.00  0.00     0.000 C
ATOM     38  C2  GU6 D   3      61.027 118.678  72.4820  0.00  0.00     0.000 C
ATOM     39  C3  GU6 D   3      62.422 119.133  72.1410  0.00  0.00     0.000 C
ATOM     40  C4  GU6 D   3      62.972 120.266  72.8930  0.00  0.00     0.000 C
ATOM     41  C5  GU6 D   3      61.843 121.316  73.1560  0.00  0.00     0.000 C
ATOM     42  O5  GU6 D   3      60.565 120.781  73.5200  0.00  0.00     0.000 O
BRANCH 38 43
ATOM     43   O  GU6 D   3      61.005 117.274  72.6530  0.00  0.00     0.000 O
ATOM     44   S  GU6 D   3      60.188 116.525  71.6090  0.00  0.00     0.000 S
ATOM     45   O  GU6 D   3      58.767 116.587  71.9950  0.00  0.00     0.000 OA
ATOM     46   O  GU6 D   3      60.371 117.186  70.3050  0.00  0.00     0.000 O
ATOM     47   O  GU6 D   3      60.661 115.146  71.5420  0.00  0.00     0.000 OA
ENDBRANCH 38 43
BRANCH 39 48
ATOM     48   O  GU6 D   3      63.254 118.357  71.2990  0.00  0.00     0.000 O
ATOM     49   S  GU6 D   3      64.357 117.362  71.6570  0.00  0.00     0.000 S
ATOM     50   O  GU6 D   3      63.832 116.329  72.5580  0.00  0.00     0.000 OA
ATOM     51   O  GU6 D   3      64.727 116.792  70.3550  0.00  0.00     0.000 OA
ATOM     52   O  GU6 D   3      65.466 118.090  72.3130  0.00  0.00     0.000 O
ENDBRANCH 39 48
BRANCH 41 53
ATOM     53   C  GU6 D   3      61.913 122.818  73.0960  0.00  0.00     0.000 C
ATOM     54   O  GU6 D   3      62.803 123.011  74.1640  0.00  0.00     0.000 O
ATOM     55   S  GU6 D   3      63.155 124.427  74.6380  0.00  0.00     0.000 S
ATOM     56   O  GU6 D   3      61.915 125.011  75.1990  0.00  0.00     0.000 O
ATOM     57   O  GU6 D   3      64.198 124.330  75.6700  0.00  0.00     0.000 OA
ATOM     58   O  GU6 D   3      63.611 125.186  73.4510  0.00  0.00     0.000 OA
ENDBRANCH 41 53
BRANCH 37 59
ATOM     59  O4  Z9K D   4      61.097 119.158  75.0690  0.00  0.00     0.000 O
BRANCH 59 63
ATOM     60  C1  Z9K D   4      61.600 117.353  78.5240  0.00  0.00     0.000 C
ATOM     61  C2  Z9K D   4      60.334 116.629  77.9880  0.00  0.00     0.000 C
ATOM     62  C3  Z9K D   4      60.243 117.229  76.5180  0.00  0.00     0.000 C
ATOM     63  C4  Z9K D   4      60.431 118.781  76.3090  0.00  0.00     0.000 C
ATOM     64  C5  Z9K D   4      61.273 119.507  77.3690  0.00  0.00     0.000 C
ATOM     65  O5  Z9K D   4      62.230 118.492  77.7700  0.00  0.00     0.000 O
ATOM     66   O  Z9K D   4      59.008 116.913  75.8500  0.00  0.00     0.000 O
ATOM     67   C  Z9K D   4      59.004 115.658  75.1890  0.00  0.00     0.000 C
BRANCH 61 68
ATOM     68   O  Z9K D   4      60.665 115.276  77.8400  0.00  0.00     0.000 O
ATOM     69   O  Z9K D   4      58.217 115.559  78.5290  0.00  0.00     0.000 OA
ATOM     70   S  Z9K D   4      59.528 115.218  78.9920  0.00  0.00     0.000 S
ATOM     71   O  Z9K D   4      60.106 115.621  80.2380  0.00  0.00     0.000 OA
ATOM     72   O  Z9K D   4      59.805 113.837  78.7650  0.00  0.00     0.000 OA
ENDBRANCH 61 68
BRANCH 64 73
ATOM     73   C  Z9K D   4      61.802 120.850  76.8240  0.00  0.00     0.000 C
ATOM     74   O  Z9K D   4      61.029 121.838  76.6520  0.00  0.00     0.000 O
ATOM     75   O  Z9K D   4      63.012 121.018  76.5370  0.00  0.00     0.000 OA
ENDBRANCH 64 73
BRANCH 60 76
ATOM     76  O4  Z9L D   5      61.813 117.941  79.8190  0.00  0.00     0.000 O
BRANCH 76 80
ATOM     77  C1  Z9L D   5      64.510 118.590  82.6950  0.00  0.00     0.000 C
ATOM     78  C2  Z9L D   5      64.110 120.022  82.0950  0.00  0.00     0.000 C
ATOM     79  C3  Z9L D   5      62.672 119.802  81.2310  0.00  0.00     0.000 C
ATOM     80  C4  Z9L D   5      62.984 118.382  80.4560  0.00  0.00     0.000 C
ATOM     81  C5  Z9L D   5      63.606 116.998  81.0020  0.00  0.00     0.000 C
ATOM     82  O5  Z9L D   5      64.680 117.358  81.8840  0.00  0.00     0.000 O
ATOM     83   C  Z9L D   5      63.883 117.045  84.4590  0.00  0.00     0.000 C
ATOM     84   C  Z9L D   5      63.883 117.045  84.4590  0.00  0.00     0.000 C
BRANCH 78 85
ATOM     85   O  Z9L D   5      63.874 120.886  83.1600  0.00  0.00     0.000 O
ATOM     86   O  Z9L D   5      64.983 122.388  83.6340  0.00  0.00     0.000 OA
ATOM     87   S  Z9L D   5      65.151 121.574  82.4680  0.00  0.00     0.000 S
ATOM     88   O  Z9L D   5      64.818 122.435  81.3600  0.00  0.00     0.000 OA
ATOM     89   O  Z9L D   5      66.399 120.917  82.6470  0.00  0.00     0.000 OA
ENDBRANCH 78 85
BRANCH 79 90
ATOM     90   O  Z9L D   5      62.571 120.706  80.1770  0.00  0.00     0.000 O
ATOM     91   S  Z9L D   5      61.236 121.066  80.9670  0.00  0.00     0.000 S
ATOM     92   O  Z9L D   5      61.241 121.453  82.3530  0.00  0.00     0.000 OA
ATOM     93   O  Z9L D   5      60.135 120.319  80.4100  0.00  0.00     0.000 O
ATOM     94   O  Z9L D   5      61.370 122.258  80.1940  0.00  0.00     0.000 OA
ENDBRANCH 79 90
BRANCH 81 95
ATOM     95   C  Z9L D   5      63.866 115.777  79.8820  0.00  0.00     0.000 C
ATOM     96   S  Z9L D   5      65.212 114.932  78.6810  0.00  0.00     0.000 S
ATOM     97   O  Z9L D   5      64.886 116.400  79.1480  0.00  0.00     0.000 O
ATOM     98   O  Z9L D   5      64.166 114.545  77.7690  0.00  0.00     0.000 OA
ATOM     99   O  Z9L D   5      65.674 114.047  79.6960  0.00  0.00     0.000 OA
ATOM    100   O  Z9L D   5      66.231 115.630  77.9360  0.00  0.00     0.000 O
ENDBRANCH 81 95
ENDBRANCH 76 80
ENDBRANCH 60 76
ENDBRANCH 59 63
ENDBRANCH 37 59
ENDBRANCH 36 40
ENDBRANCH 23 36
ENDBRANCH 22 26
ENDBRANCH 1 22
TORSDOF 19
ENDMDL
MODEL 64
REMARK VINA RESULT:      -0.4    132.878    137.369
ROOT
ATOM      1  C1  Z9H D   1       4.237 111.795 113.3330  0.00  0.00     0.000 C
ATOM      2  C2  Z9H D   1       3.153 112.738 112.7600  0.00  0.00     0.000 C
ATOM      3  C3  Z9H D   1       3.925 114.084 112.9120  0.00  0.00     0.000 C
ATOM      4  C4  Z9H D   1       4.553 114.349 114.3430  0.00  0.00     0.000 C
ATOM      5  C5  Z9H D   1       5.396 113.267 115.1300  0.00  0.00     0.000 C
ATOM      6  O5  Z9H D   1       4.799 112.035 114.6530  0.00  0.00     0.000 O
ATOM      7   O  Z9H D   1       3.128 115.198 112.5060  0.00  0.00     0.000 O
ATOM      8   C  Z9H D   1       3.372 115.677 111.1730  0.00  0.00     0.000 C
ATOM      9   O  Z9H D   1       5.383 115.506 114.1960  0.00  0.00     0.000 O
ATOM     10   C  Z9H D   1       4.802 116.740 114.6280  0.00  0.00     0.000 C
ENDROOT
BRANCH 2 11
ATOM     11   O  Z9H D   1       3.202 112.441 111.3890  0.00  0.00     0.000 O
ATOM     12   O  Z9H D   1       1.813 111.592 110.4370  0.00  0.00     0.000 OA
ATOM     13   S  Z9H D   1       1.756 111.942 111.8170  0.00  0.00     0.000 S
ATOM     14   O  Z9H D   1       0.944 113.093 112.0900  0.00  0.00     0.000 OA
ATOM     15   O  Z9H D   1       1.823 110.756 112.6400  0.00  0.00     0.000 O
ENDBRANCH 2 11
BRANCH 5 16
ATOM     16   C  Z9H D   1       5.583 113.568 116.7660  0.00  0.00     0.000 C
ATOM     17   S  Z9H D   1       6.856 113.424 118.3140  0.00  0.00     0.000 S
ATOM     18   O  Z9H D   1       6.965 113.832 116.7560  0.00  0.00     0.000 O
ATOM     19   O  Z9H D   1       6.557 112.042 118.5560  0.00  0.00     0.000 O
ATOM     20   O  Z9H D   1       6.282 114.488 119.0610  0.00  0.00     0.000 OA
ATOM     21   O  Z9H D   1       8.268 113.660 118.2310  0.00  0.00     0.000 OA
ENDBRANCH 5 16
BRANCH 1 22
ATOM     22  O4  GU1 D   2       5.469 111.708 112.5290  0.00  0.00     0.000 O
BRANCH 22 26
ATOM     23  C1  GU1 D   2       8.507 109.222 111.2790  0.00  0.00     0.000 C
ATOM     24  C2  GU1 D   2       7.151 108.550 111.4290  0.00  0.00     0.000 C
ATOM     25  C3  GU1 D   2       6.081 109.600 111.5070  0.00  0.00     0.000 C
ATOM     26  C4  GU1 D   2       6.396 110.617 112.5930  0.00  0.00     0.000 C
ATOM     27  C5  GU1 D   2       7.818 111.155 112.4120  0.00  0.00     0.000 C
ATOM     28  O5  GU1 D   2       8.757 110.084 112.3830  0.00  0.00     0.000 O
ATOM     29   O  GU1 D   2       6.856 107.695 110.3300  0.00  0.00     0.000 O
ATOM     30   C  GU1 D   2       7.159 106.328 110.5670  0.00  0.00     0.000 C
ATOM     31   C  GU1 D   2       3.956 108.786 110.7210  0.00  0.00     0.000 C
ATOM     32   O  GU1 D   2       4.841 108.959 111.8250  0.00  0.00     0.000 O
BRANCH 27 33
ATOM     33   C  GU1 D   2       8.202 112.077 113.5450  0.00  0.00     0.000 C
ATOM     34   O  GU1 D   2       8.382 111.597 114.6450  0.00  0.00     0.000 OA
ATOM     35   O  GU1 D   2       8.333 113.276 113.3520  0.00  0.00     0.000 O
ENDBRANCH 27 33
BRANCH 23 36
ATOM     36  O4  GU6 D   3       9.715 108.450 111.4280  0.00  0.00     0.000 O
BRANCH 36 40
ATOM     37  C1  GU6 D   3      13.092 106.678 112.8930  0.00  0.00     0.000 C
ATOM     38  C2  GU6 D   3      13.105 106.879 111.3830  0.00  0.00     0.000 C
ATOM     39  C3  GU6 D   3      11.959 107.771 110.9830  0.00  0.00     0.000 C
ATOM     40  C4  GU6 D   3      10.954 108.088 112.0040  0.00  0.00     0.000 C
ATOM     41  C5  GU6 D   3      10.698 106.828 112.8950  0.00  0.00     0.000 C
ATOM     42  O5  GU6 D   3      11.860 106.075 113.2590  0.00  0.00     0.000 O
BRANCH 38 43
ATOM     43   O  GU6 D   3      14.330 107.451 110.9680  0.00  0.00     0.000 O
ATOM     44   S  GU6 D   3      15.066 106.655 109.8980  0.00  0.00     0.000 S
ATOM     45   O  GU6 D   3      15.806 105.563 110.5540  0.00  0.00     0.000 OA
ATOM     46   O  GU6 D   3      14.073 106.085 108.9690  0.00  0.00     0.000 O
ATOM     47   O  GU6 D   3      15.966 107.551 109.1800  0.00  0.00     0.000 OA
ENDBRANCH 38 43
BRANCH 39 48
ATOM     48   O  GU6 D   3      11.974 108.464 109.7490  0.00  0.00     0.000 O
ATOM     49   S  GU6 D   3      12.364 109.908 109.4400  0.00  0.00     0.000 S
ATOM     50   O  GU6 D   3      13.721 110.181 109.9270  0.00  0.00     0.000 OA
ATOM     51   O  GU6 D   3      12.306 109.962 107.9730  0.00  0.00     0.000 OA
ATOM     52   O  GU6 D   3      11.398 110.817 110.0960  0.00  0.00     0.000 O
ENDBRANCH 39 48
BRANCH 41 53
ATOM     53   C  GU6 D   3       9.398 106.301 113.4390  0.00  0.00     0.000 C
ATOM     54   O  GU6 D   3       9.101 107.373 114.2950  0.00  0.00     0.000 O
ATOM     55   S  GU6 D   3       7.882 107.312 115.2250  0.00  0.00     0.000 S
ATOM     56   O  GU6 D   3       8.148 106.235 116.2080  0.00  0.00     0.000 O
ATOM     57   O  GU6 D   3       7.743 108.610 115.9010  0.00  0.00     0.000 OA
ATOM     58   O  GU6 D   3       6.706 106.988 114.3870  0.00  0.00     0.000 OA
ENDBRANCH 41 53
BRANCH 37 59
ATOM     59  O4  Z9K D   4      13.374 107.703 113.8690  0.00  0.00     0.000 O
BRANCH 59 63
ATOM     60  C1  Z9K D   4      15.583 110.064 116.1040  0.00  0.00     0.000 C
ATOM     61  C2  Z9K D   4      16.644 109.048 115.5990  0.00  0.00     0.000 C
ATOM     62  C3  Z9K D   4      15.786 108.210 114.5540  0.00  0.00     0.000 C
ATOM     63  C4  Z9K D   4      14.341 107.728 114.9590  0.00  0.00     0.000 C
ATOM     64  C5  Z9K D   4      13.620 108.574 116.0190  0.00  0.00     0.000 C
ATOM     65  O5  Z9K D   4      14.125 109.911 115.7630  0.00  0.00     0.000 O
ATOM     66   O  Z9K D   4      16.455 107.023 114.0910  0.00  0.00     0.000 O
ATOM     67   C  Z9K D   4      17.330 107.234 112.9950  0.00  0.00     0.000 C
BRANCH 61 68
ATOM     68   O  Z9K D   4      17.581 109.770 114.8490  0.00  0.00     0.000 O
ATOM     69   O  Z9K D   4      18.687 107.816 116.0760  0.00  0.00     0.000 OA
ATOM     70   S  Z9K D   4      18.482 109.233 116.0830  0.00  0.00     0.000 S
ATOM     71   O  Z9K D   4      18.216 110.034 117.2380  0.00  0.00     0.000 OA
ATOM     72   O  Z9K D   4      19.447 109.890 115.2610  0.00  0.00     0.000 OA
ENDBRANCH 61 68
BRANCH 64 73
ATOM     73   C  Z9K D   4      12.096 108.335 115.9680  0.00  0.00     0.000 C
ATOM     74   O  Z9K D   4      11.589 107.250 116.3740  0.00  0.00     0.000 O
ATOM     75   O  Z9K D   4      11.304 109.206 115.5310  0.00  0.00     0.000 OA
ENDBRANCH 64 73
BRANCH 60 76
ATOM     76  O4  Z9L D   5      15.339 110.509 117.4490  0.00  0.00     0.000 O
BRANCH 76 80
ATOM     77  C1  Z9L D   5      14.277 113.642 119.6910  0.00  0.00     0.000 C
ATOM     78  C2  Z9L D   5      13.122 112.540 119.8470  0.00  0.00     0.000 C
ATOM     79  C3  Z9L D   5      13.769 111.078 119.2950  0.00  0.00     0.000 C
ATOM     80  C4  Z9L D   5      14.578 111.577 117.9500  0.00  0.00     0.000 C
ATOM     81  C5  Z9L D   5      15.569 112.828 117.7200  0.00  0.00     0.000 C
ATOM     82  O5  Z9L D   5      14.990 113.937 118.4220  0.00  0.00     0.000 O
ATOM     83   C  Z9L D   5      16.350 114.358 120.7330  0.00  0.00     0.000 C
ATOM     84   C  Z9L D   5      16.350 114.358 120.7330  0.00  0.00     0.000 C
BRANCH 78 85
ATOM     85   O  Z9L D   5      12.817 112.422 121.2000  0.00  0.00     0.000 O
ATOM     86   O  Z9L D   5      11.166 112.987 122.0150  0.00  0.00     0.000 OA
ATOM     87   S  Z9L D   5      11.435 112.991 120.6090  0.00  0.00     0.000 S
ATOM     88   O  Z9L D   5      10.574 111.972 120.0610  0.00  0.00     0.000 OA
ATOM     89   O  Z9L D   5      11.424 114.361 120.2290  0.00  0.00     0.000 OA
ENDBRANCH 78 85
BRANCH 79 90
ATOM     90   O  Z9L D   5      12.780 110.254 118.7650  0.00  0.00     0.000 O
ATOM     91   S  Z9L D   5      13.363 109.284 119.8850  0.00  0.00     0.000 S
ATOM     92   O  Z9L D   5      13.429 109.660 121.2720  0.00  0.00     0.000 OA
ATOM     93   O  Z9L D   5      14.365 108.428 119.3000  0.00  0.00     0.000 O
ATOM     94   O  Z9L D   5      12.098 108.655 119.6770  0.00  0.00     0.000 OA
ENDBRANCH 79 90
BRANCH 81 95
ATOM     95   C  Z9L D   5      16.143 113.079 116.1640  0.00  0.00     0.000 C
ATOM     96   S  Z9L D   5      15.858 114.084 114.4680  0.00  0.00     0.000 S
ATOM     97   O  Z9L D   5      14.928 113.442 115.5640  0.00  0.00     0.000 O
ATOM     98   O  Z9L D   5      16.428 112.995 113.7180  0.00  0.00     0.000 OA
ATOM     99   O  Z9L D   5      16.654 115.184 114.8980  0.00  0.00     0.000 OA
ATOM    100   O  Z9L D   5      14.579 114.415 113.8900  0.00  0.00     0.000 O
ENDBRANCH 81 95
ENDBRANCH 76 80
ENDBRANCH 60 76
ENDBRANCH 59 63
ENDBRANCH 37 59
ENDBRANCH 36 40
ENDBRANCH 23 36
ENDBRANCH 22 26
ENDBRANCH 1 22
TORSDOF 19
ENDMDL
MODEL 65
REMARK VINA RESULT:      -0.4    165.303    171.766
ROOT
ATOM      1  C1  Z9H D   1     113.429  81.850 142.4180  0.00  0.00     0.000 C
ATOM      2  C2  Z9H D   1     113.582  82.347 143.8750  0.00  0.00     0.000 C
ATOM      3  C3  Z9H D   1     114.372  83.659 143.5800  0.00  0.00     0.000 C
ATOM      4  C4  Z9H D   1     115.640  83.492 142.6440  0.00  0.00     0.000 C
ATOM      5  C5  Z9H D   1     115.612  82.683 141.2870  0.00  0.00     0.000 C
ATOM      6  O5  Z9H D   1     114.598  81.686 141.5680  0.00  0.00     0.000 O
ATOM      7   O  Z9H D   1     114.730  84.340 144.7840  0.00  0.00     0.000 O
ATOM      8   C  Z9H D   1     113.864  85.425 145.1580  0.00  0.00     0.000 C
ATOM      9   O  Z9H D   1     116.072  84.821 142.3350  0.00  0.00     0.000 O
ATOM     10   C  Z9H D   1     117.168  85.311 143.1130  0.00  0.00     0.000 C
ENDROOT
BRANCH 2 11
ATOM     11   O  Z9H D   1     112.278  82.766 144.1800  0.00  0.00     0.000 O
ATOM     12   O  Z9H D   1     111.160  81.919 145.4410  0.00  0.00     0.000 OA
ATOM     13   S  Z9H D   1     112.501  81.533 145.1560  0.00  0.00     0.000 S
ATOM     14   O  Z9H D   1     113.443  81.923 146.1670  0.00  0.00     0.000 OA
ATOM     15   O  Z9H D   1     112.524  80.280 144.4380  0.00  0.00     0.000 O
ENDBRANCH 2 11
BRANCH 5 16
ATOM     16   C  Z9H D   1     117.114  82.252 140.6870  0.00  0.00     0.000 C
ATOM     17   S  Z9H D   1     118.188  82.008 139.0060  0.00  0.00     0.000 S
ATOM     18   O  Z9H D   1     117.111  83.081 139.5490  0.00  0.00     0.000 O
ATOM     19   O  Z9H D   1     117.658  80.702 138.7430  0.00  0.00     0.000 O
ATOM     20   O  Z9H D   1     119.451  82.228 139.6200  0.00  0.00     0.000 OA
ATOM     21   O  Z9H D   1     118.107  82.862 137.8570  0.00  0.00     0.000 OA
ENDBRANCH 5 16
BRANCH 1 22
ATOM     22  O4  GU1 D   2     112.590  82.704 141.5580  0.00  0.00     0.000 O
BRANCH 22 26
ATOM     23  C1  GU1 D   2     109.873  82.732 138.4620  0.00  0.00     0.000 C
ATOM     24  C2  GU1 D   2     109.762  81.540 139.4000  0.00  0.00     0.000 C
ATOM     25  C3  GU1 D   2     110.516  81.830 140.6650  0.00  0.00     0.000 C
ATOM     26  C4  GU1 D   2     111.946  82.253 140.3610  0.00  0.00     0.000 C
ATOM     27  C5  GU1 D   2     111.950  83.386 139.3310  0.00  0.00     0.000 C
ATOM     28  O5  GU1 D   2     111.238  82.998 138.1590  0.00  0.00     0.000 O
ATOM     29   O  GU1 D   2     108.410  81.258 139.7430  0.00  0.00     0.000 O
ATOM     30   C  GU1 D   2     107.818  80.236 138.9530  0.00  0.00     0.000 C
ATOM     31   C  GU1 D   2     109.631  80.616 142.5450  0.00  0.00     0.000 C
ATOM     32   O  GU1 D   2     110.549  80.637 141.4550  0.00  0.00     0.000 O
BRANCH 27 33
ATOM     33   C  GU1 D   2     113.358  83.745 138.9190  0.00  0.00     0.000 C
ATOM     34   O  GU1 D   2     113.981  82.953 138.2420  0.00  0.00     0.000 OA
ATOM     35   O  GU1 D   2     113.852  84.809 139.2580  0.00  0.00     0.000 O
ENDBRANCH 27 33
BRANCH 23 36
ATOM     36  O4  GU6 D   3     109.447  82.613 137.0900  0.00  0.00     0.000 O
BRANCH 36 40
ATOM     37  C1  GU6 D   3     109.334  82.090 133.0390  0.00  0.00     0.000 C
ATOM     38  C2  GU6 D   3     108.199  82.949 133.5840  0.00  0.00     0.000 C
ATOM     39  C3  GU6 D   3     108.480  83.304 135.0210  0.00  0.00     0.000 C
ATOM     40  C4  GU6 D   3     109.597  82.624 135.6850  0.00  0.00     0.000 C
ATOM     41  C5  GU6 D   3     109.656  81.133 135.2150  0.00  0.00     0.000 C
ATOM     42  O5  GU6 D   3     109.421  80.908 133.8210  0.00  0.00     0.000 O
BRANCH 38 43
ATOM     43   O  GU6 D   3     108.054  84.127 132.8150  0.00  0.00     0.000 O
ATOM     44   S  GU6 D   3     106.656  84.342 132.2510  0.00  0.00     0.000 S
ATOM     45   O  GU6 D   3     106.515  83.535 131.0270  0.00  0.00     0.000 OA
ATOM     46   O  GU6 D   3     105.671  83.892 133.2510  0.00  0.00     0.000 O
ATOM     47   O  GU6 D   3     106.474  85.764 131.9740  0.00  0.00     0.000 OA
ENDBRANCH 38 43
BRANCH 39 48
ATOM     48   O  GU6 D   3     107.846  84.411 135.6320  0.00  0.00     0.000 O
ATOM     49   S  GU6 D   3     108.357  85.835 135.8530  0.00  0.00     0.000 S
ATOM     50   O  GU6 D   3     108.777  86.425 134.5760  0.00  0.00     0.000 OA
ATOM     51   O  GU6 D   3     107.183  86.529 136.3980  0.00  0.00     0.000 OA
ATOM     52   O  GU6 D   3     109.500  85.794 136.7920  0.00  0.00     0.000 O
ENDBRANCH 39 48
BRANCH 41 53
ATOM     53   C  GU6 D   3     109.940  79.896 136.0230  0.00  0.00     0.000 C
ATOM     54   O  GU6 D   3     111.272  80.187 136.3570  0.00  0.00     0.000 O
ATOM     55   S  GU6 D   3     112.126  79.164 137.1180  0.00  0.00     0.000 S
ATOM     56   O  GU6 D   3     112.311  78.005 136.2140  0.00  0.00     0.000 O
ATOM     57   O  GU6 D   3     113.420  79.782 137.4420  0.00  0.00     0.000 OA
ATOM     58   O  GU6 D   3     111.371  78.778 138.3310  0.00  0.00     0.000 OA
ENDBRANCH 41 53
BRANCH 37 59
ATOM     59  O4  Z9K D   4     110.681  82.549 132.8030  0.00  0.00     0.000 O
BRANCH 59 63
ATOM     60  C1  Z9K D   4     113.621  84.311 130.8800  0.00  0.00     0.000 C
ATOM     61  C2  Z9K D   4     112.533  84.247 129.7730  0.00  0.00     0.000 C
ATOM     62  C3  Z9K D   4     111.290  83.705 130.6030  0.00  0.00     0.000 C
ATOM     63  C4  Z9K D   4     111.497  82.499 131.5970  0.00  0.00     0.000 C
ATOM     64  C5  Z9K D   4     112.914  82.329 132.1650  0.00  0.00     0.000 C
ATOM     65  O5  Z9K D   4     113.400  83.696 132.2350  0.00  0.00     0.000 O
ATOM     66   O  Z9K D   4     110.179  83.315 129.7760  0.00  0.00     0.000 O
ATOM     67   C  Z9K D   4     109.308  84.377 129.4260  0.00  0.00     0.000 C
BRANCH 61 68
ATOM     68   O  Z9K D   4     112.225  85.568 129.4220  0.00  0.00     0.000 O
ATOM     69   O  Z9K D   4     112.050  84.008 127.4010  0.00  0.00     0.000 OA
ATOM     70   S  Z9K D   4     112.862  84.995 128.0470  0.00  0.00     0.000 S
ATOM     71   O  Z9K D   4     114.286  84.954 128.1740  0.00  0.00     0.000 OA
ATOM     72   O  Z9K D   4     112.456  86.312 127.6730  0.00  0.00     0.000 OA
ENDBRANCH 61 68
BRANCH 64 73
ATOM     73   C  Z9K D   4     112.890  81.484 133.4560  0.00  0.00     0.000 C
ATOM     74   O  Z9K D   4     112.673  80.238 133.4200  0.00  0.00     0.000 O
ATOM     75   O  Z9K D   4     113.091  81.995 134.5850  0.00  0.00     0.000 OA
ENDBRANCH 64 73
BRANCH 60 76
ATOM     76  O4  Z9L D   5     115.002  83.918 130.8010  0.00  0.00     0.000 O
BRANCH 76 80
ATOM     77  C1  Z9L D   5     118.709  84.818 131.9930  0.00  0.00     0.000 C
ATOM     78  C2  Z9L D   5     118.341  83.396 132.6370  0.00  0.00     0.000 C
ATOM     79  C3  Z9L D   5     117.002  82.810 131.7860  0.00  0.00     0.000 C
ATOM     80  C4  Z9L D   5     116.091  84.175 131.6500  0.00  0.00     0.000 C
ATOM     81  C5  Z9L D   5     116.498  85.676 131.2220  0.00  0.00     0.000 C
ATOM     82  O5  Z9L D   5     117.756  85.949 131.8560  0.00  0.00     0.000 O
ATOM     83   C  Z9L D   5     119.750  85.781 130.0230  0.00  0.00     0.000 C
ATOM     84   C  Z9L D   5     119.750  85.781 130.0230  0.00  0.00     0.000 C
BRANCH 78 85
ATOM     85   O  Z9L D   5     119.419  82.540 132.4380  0.00  0.00     0.000 O
ATOM     86   O  Z9L D   5     120.576  81.875 133.8270  0.00  0.00     0.000 OA
ATOM     87   S  Z9L D   5     119.394  82.652 134.0400  0.00  0.00     0.000 S
ATOM     88   O  Z9L D   5     118.462  81.751 134.6720  0.00  0.00     0.000 OA
ATOM     89   O  Z9L D   5     119.849  83.880 134.5960  0.00  0.00     0.000 OA
ENDBRANCH 78 85
BRANCH 79 90
ATOM     90   O  Z9L D   5     116.208  81.995 132.5880  0.00  0.00     0.000 O
ATOM     91   S  Z9L D   5     116.535  80.973 131.4110  0.00  0.00     0.000 S
ATOM     92   O  Z9L D   5     117.883  80.646 131.0280  0.00  0.00     0.000 OA
ATOM     93   O  Z9L D   5     115.476  81.014 130.4340  0.00  0.00     0.000 O
ATOM     94   O  Z9L D   5     116.144  80.040 132.4180  0.00  0.00     0.000 OA
ENDBRANCH 79 90
BRANCH 81 95
ATOM     95   C  Z9L D   5     115.298  86.847 131.2890  0.00  0.00     0.000 C
ATOM     96   S  Z9L D   5     114.496  88.291 132.4000  0.00  0.00     0.000 S
ATOM     97   O  Z9L D   5     115.135  86.880 132.6810  0.00  0.00     0.000 O
ATOM     98   O  Z9L D   5     113.210  88.052 131.7970  0.00  0.00     0.000 OA
ATOM     99   O  Z9L D   5     115.382  89.282 131.8880  0.00  0.00     0.000 OA
ATOM    100   O  Z9L D   5     114.339  88.262 133.8340  0.00  0.00     0.000 O
ENDBRANCH 81 95
ENDBRANCH 76 80
ENDBRANCH 60 76
ENDBRANCH 59 63
ENDBRANCH 37 59
ENDBRANCH 36 40
ENDBRANCH 23 36
ENDBRANCH 22 26
ENDBRANCH 1 22
TORSDOF 19
ENDMDL
MODEL 66
REMARK VINA RESULT:      -0.4    159.345    166.023
ROOT
ATOM      1  C1  Z9H D   1     120.049  84.543 129.9620  0.00  0.00     0.000 C
ATOM      2  C2  Z9H D   1     121.005  84.235 131.1390  0.00  0.00     0.000 C
ATOM      3  C3  Z9H D   1     119.939  83.746 132.1670  0.00  0.00     0.000 C
ATOM      4  C4  Z9H D   1     118.694  84.707 132.3650  0.00  0.00     0.000 C
ATOM      5  C5  Z9H D   1     117.886  85.333 131.1600  0.00  0.00     0.000 C
ATOM      6  O5  Z9H D   1     118.917  85.437 130.1460  0.00  0.00     0.000 O
ATOM      7   O  Z9H D   1     120.530  83.432 133.4300  0.00  0.00     0.000 O
ATOM      8   C  Z9H D   1     120.797  82.038 133.6560  0.00  0.00     0.000 C
ATOM      9   O  Z9H D   1     117.760  83.974 133.1650  0.00  0.00     0.000 O
ATOM     10   C  Z9H D   1     117.761  84.291 134.5600  0.00  0.00     0.000 C
ENDROOT
BRANCH 2 11
ATOM     11   O  Z9H D   1     121.647  83.068 130.6960  0.00  0.00     0.000 O
ATOM     12   O  Z9H D   1     123.477  82.971 130.2500  0.00  0.00     0.000 OA
ATOM     13   S  Z9H D   1     122.823  84.135 130.7460  0.00  0.00     0.000 S
ATOM     14   O  Z9H D   1     123.114  84.422 132.1220  0.00  0.00     0.000 OA
ATOM     15   O  Z9H D   1     122.692  85.123 129.7000  0.00  0.00     0.000 O
ENDBRANCH 2 11
BRANCH 5 16
ATOM     16   C  Z9H D   1     116.921  86.641 131.5570  0.00  0.00     0.000 C
ATOM     17   S  Z9H D   1     115.222  87.612 131.0980  0.00  0.00     0.000 S
ATOM     18   O  Z9H D   1     115.678  86.069 131.2290  0.00  0.00     0.000 O
ATOM     19   O  Z9H D   1     115.812  88.323 130.0010  0.00  0.00     0.000 O
ATOM     20   O  Z9H D   1     115.038  88.181 132.3870  0.00  0.00     0.000 OA
ATOM     21   O  Z9H D   1     113.994  86.972 130.7240  0.00  0.00     0.000 OA
ENDBRANCH 5 16
BRANCH 1 22
ATOM     22  O4  GU1 D   2     119.371  83.366 129.3910  0.00  0.00     0.000 O
BRANCH 22 26
ATOM     23  C1  GU1 D   2     117.954  81.648 125.9250  0.00  0.00     0.000 C
ATOM     24  C2  GU1 D   2     119.221  82.473 125.7580  0.00  0.00     0.000 C
ATOM     25  C3  GU1 D   2     119.838  82.715 127.1050  0.00  0.00     0.000 C
ATOM     26  C4  GU1 D   2     118.824  83.317 128.0680  0.00  0.00     0.000 C
ATOM     27  C5  GU1 D   2     117.548  82.469 128.0830  0.00  0.00     0.000 C
ATOM     28  O5  GU1 D   2     117.028  82.328 126.7640  0.00  0.00     0.000 O
ATOM     29   O  GU1 D   2     120.182  81.814 124.9420  0.00  0.00     0.000 O
ATOM     30   C  GU1 D   2     120.162  82.229 123.5830  0.00  0.00     0.000 C
ATOM     31   C  GU1 D   2     122.218  83.044 126.9650  0.00  0.00     0.000 C
ATOM     32   O  GU1 D   2     120.921  83.636 126.9470  0.00  0.00     0.000 O
BRANCH 27 33
ATOM     33   C  GU1 D   2     116.478  83.107 128.9370  0.00  0.00     0.000 C
ATOM     34   O  GU1 D   2     115.932  84.109 128.5240  0.00  0.00     0.000 OA
ATOM     35   O  GU1 D   2     116.171  82.620 130.0140  0.00  0.00     0.000 O
ENDBRANCH 27 33
BRANCH 23 36
ATOM     36  O4  GU6 D   3     117.047  81.488 124.8160  0.00  0.00     0.000 O
BRANCH 36 40
ATOM     37  C1  GU6 D   3     113.936  81.849 122.1930  0.00  0.00     0.000 C
ATOM     38  C2  GU6 D   3     114.547  80.454 122.2390  0.00  0.00     0.000 C
ATOM     39  C3  GU6 D   3     115.486  80.353 123.4120  0.00  0.00     0.000 C
ATOM     40  C4  GU6 D   3     115.816  81.590 124.1290  0.00  0.00     0.000 C
ATOM     41  C5  GU6 D   3     115.955  82.766 123.1070  0.00  0.00     0.000 C
ATOM     42  O5  GU6 D   3     114.983  82.798 122.0560  0.00  0.00     0.000 O
BRANCH 38 43
ATOM     43   O  GU6 D   3     113.535  79.471 122.3440  0.00  0.00     0.000 O
ATOM     44   S  GU6 D   3     113.574  78.410 121.2530  0.00  0.00     0.000 S
ATOM     45   O  GU6 D   3     112.914  78.949 120.0510  0.00  0.00     0.000 OA
ATOM     46   O  GU6 D   3     114.982  78.104 120.9430  0.00  0.00     0.000 O
ATOM     47   O  GU6 D   3     112.897  77.211 121.7380  0.00  0.00     0.000 OA
ENDBRANCH 38 43
BRANCH 39 48
ATOM     48   O  GU6 D   3     115.850  79.094 123.9450  0.00  0.00     0.000 O
ATOM     49   S  GU6 D   3     115.287  78.339 125.1490  0.00  0.00     0.000 S
ATOM     50   O  GU6 D   3     113.836  78.172 125.0070  0.00  0.00     0.000 OA
ATOM     51   O  GU6 D   3     115.979  77.045 125.0830  0.00  0.00     0.000 OA
ATOM     52   O  GU6 D   3     115.592  79.103 126.3790  0.00  0.00     0.000 O
ENDBRANCH 39 48
BRANCH 41 53
ATOM     53   C  GU6 D   3     116.962  83.884 123.0800  0.00  0.00     0.000 C
ATOM     54   O  GU6 D   3     116.590  84.504 124.2840  0.00  0.00     0.000 O
ATOM     55   S  GU6 D   3     117.248  85.822 124.7150  0.00  0.00     0.000 S
ATOM     56   O  GU6 D   3     116.832  86.849 123.7320  0.00  0.00     0.000 O
ATOM     57   O  GU6 D   3     116.767  86.167 126.0610  0.00  0.00     0.000 OA
ATOM     58   O  GU6 D   3     118.713  85.614 124.6810  0.00  0.00     0.000 OA
ENDBRANCH 41 53
BRANCH 37 59
ATOM     59  O4  Z9K D   4     113.002  82.377 123.1590  0.00  0.00     0.000 O
BRANCH 59 63
ATOM     60  C1  Z9K D   4     109.521  82.983 124.8810  0.00  0.00     0.000 C
ATOM     61  C2  Z9K D   4     109.084  82.334 123.5390  0.00  0.00     0.000 C
ATOM     62  C3  Z9K D   4     110.494  81.924 122.9280  0.00  0.00     0.000 C
ATOM     63  C4  Z9K D   4     111.680  82.962 122.9710  0.00  0.00     0.000 C
ATOM     64  C5  Z9K D   4     111.621  84.009 124.0930  0.00  0.00     0.000 C
ATOM     65  O5  Z9K D   4     110.965  83.289 125.1710  0.00  0.00     0.000 O
ATOM     66   O  Z9K D   4     110.419  81.505 121.5540  0.00  0.00     0.000 O
ATOM     67   C  Z9K D   4     110.098  80.135 121.3770  0.00  0.00     0.000 C
BRANCH 61 68
ATOM     68   O  Z9K D   4     108.429  81.137 123.8550  0.00  0.00     0.000 O
ATOM     69   O  Z9K D   4     107.409  82.230 121.7780  0.00  0.00     0.000 OA
ATOM     70   S  Z9K D   4     107.237  82.003 123.1810  0.00  0.00     0.000 S
ATOM     71   O  Z9K D   4     106.764  82.962 124.1320  0.00  0.00     0.000 OA
ATOM     72   O  Z9K D   4     106.606  80.745 123.4210  0.00  0.00     0.000 OA
ENDBRANCH 61 68
BRANCH 64 73
ATOM     73   C  Z9K D   4     113.015  84.618 124.3500  0.00  0.00     0.000 C
ATOM     74   O  Z9K D   4     113.675  84.332 125.3910  0.00  0.00     0.000 O
ATOM     75   O  Z9K D   4     113.549  85.412 123.5370  0.00  0.00     0.000 OA
ENDBRANCH 64 73
BRANCH 60 76
ATOM     76  O4  Z9L D   5     109.025  84.183 125.4980  0.00  0.00     0.000 O
BRANCH 76 80
ATOM     77  C1  Z9L D   5     108.149  85.900 128.9990  0.00  0.00     0.000 C
ATOM     78  C2  Z9L D   5     109.340  86.750 128.3440  0.00  0.00     0.000 C
ATOM     79  C3  Z9L D   5     109.396  86.327 126.7070  0.00  0.00     0.000 C
ATOM     80  C4  Z9L D   5     109.187  84.695 126.7950  0.00  0.00     0.000 C
ATOM     81  C5  Z9L D   5     108.133  83.811 127.6360  0.00  0.00     0.000 C
ATOM     82  O5  Z9L D   5     108.038  84.420 128.9330  0.00  0.00     0.000 O
ATOM     83   C  Z9L D   5     105.725  85.828 129.1080  0.00  0.00     0.000 C
ATOM     84   C  Z9L D   5     105.725  85.828 129.1080  0.00  0.00     0.000 C
BRANCH 78 85
ATOM     85   O  Z9L D   5     109.020  88.100 128.4560  0.00  0.00     0.000 O
ATOM     86   O  Z9L D   5     109.929  89.363 129.5910  0.00  0.00     0.000 OA
ATOM     87   S  Z9L D   5     110.332  88.007 129.3780  0.00  0.00     0.000 S
ATOM     88   O  Z9L D   5     111.568  88.096 128.6410  0.00  0.00     0.000 OA
ATOM     89   O  Z9L D   5     110.176  87.367 130.6390  0.00  0.00     0.000 OA
ENDBRANCH 78 85
BRANCH 79 90
ATOM     90   O  Z9L D   5     110.687  86.440 126.1980  0.00  0.00     0.000 O
ATOM     91   S  Z9L D   5     109.919  87.411 125.1960  0.00  0.00     0.000 S
ATOM     92   O  Z9L D   5     109.140  88.531 125.6540  0.00  0.00     0.000 OA
ATOM     93   O  Z9L D   5     109.537  86.674 124.0170  0.00  0.00     0.000 O
ATOM     94   O  Z9L D   5     111.251  87.878 124.9870  0.00  0.00     0.000 OA
ENDBRANCH 79 90
BRANCH 81 95
ATOM     95   C  Z9L D   5     108.283  82.143 127.5450  0.00  0.00     0.000 C
ATOM     96   S  Z9L D   5     109.081  80.533 128.4050  0.00  0.00     0.000 S
ATOM     97   O  Z9L D   5     109.530  82.025 128.1760  0.00  0.00     0.000 O
ATOM     98   O  Z9L D   5     109.153  79.877 127.1240  0.00  0.00     0.000 OA
ATOM     99   O  Z9L D   5     107.965  80.348 129.2700  0.00  0.00     0.000 OA
ATOM    100   O  Z9L D   5     110.381  80.467 129.0250  0.00  0.00     0.000 O
ENDBRANCH 81 95
ENDBRANCH 76 80
ENDBRANCH 60 76
ENDBRANCH 59 63
ENDBRANCH 37 59
ENDBRANCH 36 40
ENDBRANCH 23 36
ENDBRANCH 22 26
ENDBRANCH 1 22
TORSDOF 19
ENDMDL
MODEL 67
REMARK VINA RESULT:      -0.4    100.692    106.342
ROOT
ATOM      1  C1  Z9H D   1      59.329 108.284  53.1970  0.00  0.00     0.000 C
ATOM      2  C2  Z9H D   1      58.991 108.425  51.6940  0.00  0.00     0.000 C
ATOM      3  C3  Z9H D   1      57.852 107.362  51.6210  0.00  0.00     0.000 C
ATOM      4  C4  Z9H D   1      58.202 105.947  52.2420  0.00  0.00     0.000 C
ATOM      5  C5  Z9H D   1      58.878 105.769  53.6590  0.00  0.00     0.000 C
ATOM      6  O5  Z9H D   1      59.663 106.984  53.7580  0.00  0.00     0.000 O
ATOM      7   O  Z9H D   1      57.357 107.212  50.2890  0.00  0.00     0.000 O
ATOM      8   C  Z9H D   1      56.149 107.934  49.9960  0.00  0.00     0.000 C
ATOM      9   O  Z9H D   1      56.971 105.218  52.2660  0.00  0.00     0.000 O
ATOM     10   C  Z9H D   1      56.782 104.290  51.1930  0.00  0.00     0.000 C
ENDROOT
BRANCH 2 11
ATOM     11   O  Z9H D   1      58.337 109.666  51.6570  0.00  0.00     0.000 O
ATOM     12   O  Z9H D   1      59.030 111.205  50.8150  0.00  0.00     0.000 OA
ATOM     13   S  Z9H D   1      59.661 109.928  50.8190  0.00  0.00     0.000 S
ATOM     14   O  Z9H D   1      59.553 109.224  49.5730  0.00  0.00     0.000 OA
ATOM     15   O  Z9H D   1      60.833 109.947  51.6640  0.00  0.00     0.000 O
ENDBRANCH 2 11
BRANCH 5 16
ATOM     16   C  Z9H D   1      59.561 104.266  53.9350  0.00  0.00     0.000 C
ATOM     17   S  Z9H D   1      59.836 102.829  55.3130  0.00  0.00     0.000 S
ATOM     18   O  Z9H D   1      58.622 103.797  54.8720  0.00  0.00     0.000 O
ATOM     19   O  Z9H D   1      60.947 103.497  55.9270  0.00  0.00     0.000 O
ATOM     20   O  Z9H D   1      59.984 101.770  54.3760  0.00  0.00     0.000 OA
ATOM     21   O  Z9H D   1      58.853 102.426  56.2760  0.00  0.00     0.000 OA
ENDBRANCH 5 16
BRANCH 1 22
ATOM     22  O4  GU1 D   2      58.255 108.703  54.1150  0.00  0.00     0.000 O
BRANCH 22 26
ATOM     23  C1  GU1 D   2      57.417 110.474  57.7390  0.00  0.00     0.000 C
ATOM     24  C2  GU1 D   2      58.627 111.042  57.0140  0.00  0.00     0.000 C
ATOM     25  C3  GU1 D   2      58.601 110.600  55.5790  0.00  0.00     0.000 C
ATOM     26  C4  GU1 D   2      58.467 109.088  55.4780  0.00  0.00     0.000 C
ATOM     27  C5  GU1 D   2      57.284 108.608  56.3250  0.00  0.00     0.000 C
ATOM     28  O5  GU1 D   2      57.422 109.052  57.6720  0.00  0.00     0.000 O
ATOM     29   O  GU1 D   2      58.645 112.464  57.0410  0.00  0.00     0.000 O
ATOM     30   C  GU1 D   2      59.455 113.010  58.0720  0.00  0.00     0.000 C
ATOM     31   C  GU1 D   2      59.743 112.149  54.1340  0.00  0.00     0.000 C
ATOM     32   O  GU1 D   2      59.831 110.992  54.9620  0.00  0.00     0.000 O
BRANCH 27 33
ATOM     33   C  GU1 D   2      57.199 107.100  56.3410  0.00  0.00     0.000 C
ATOM     34   O  GU1 D   2      58.053 106.480  56.9400  0.00  0.00     0.000 OA
ATOM     35   O  GU1 D   2      56.288 106.524  55.7670  0.00  0.00     0.000 O
ENDBRANCH 27 33
BRANCH 23 36
ATOM     36  O4  GU6 D   3      57.338 110.546  59.1760  0.00  0.00     0.000 O
BRANCH 36 40
ATOM     37  C1  GU6 D   3      57.502 109.702  63.1700  0.00  0.00     0.000 C
ATOM     38  C2  GU6 D   3      56.471 110.761  62.8040  0.00  0.00     0.000 C
ATOM     39  C3  GU6 D   3      56.298 110.802  61.3080  0.00  0.00     0.000 C
ATOM     40  C4  GU6 D   3      57.247 110.037  60.4920  0.00  0.00     0.000 C
ATOM     41  C5  GU6 D   3      58.675 110.133  61.1230  0.00  0.00     0.000 C
ATOM     42  O5  GU6 D   3      58.734 110.036  62.5510  0.00  0.00     0.000 O
BRANCH 38 43
ATOM     43   O  GU6 D   3      55.231 110.485  63.4260  0.00  0.00     0.000 O
ATOM     44   S  GU6 D   3      54.683 111.626  64.2730  0.00  0.00     0.000 S
ATOM     45   O  GU6 D   3      55.343 111.592  65.5890  0.00  0.00     0.000 OA
ATOM     46   O  GU6 D   3      54.995 112.901  63.6020  0.00  0.00     0.000 O
ATOM     47   O  GU6 D   3      53.238 111.468  64.3980  0.00  0.00     0.000 OA
ENDBRANCH 38 43
BRANCH 39 48
ATOM     48   O  GU6 D   3      55.134 111.358  60.7260  0.00  0.00     0.000 O
ATOM     49   S  GU6 D   3      53.871 110.670  60.2090  0.00  0.00     0.000 S
ATOM     50   O  GU6 D   3      53.283 109.836  61.2630  0.00  0.00     0.000 OA
ATOM     51   O  GU6 D   3      52.992 111.799  59.8720  0.00  0.00     0.000 OA
ATOM     52   O  GU6 D   3      54.224 109.835  59.0390  0.00  0.00     0.000 O
ENDBRANCH 39 48
BRANCH 41 53
ATOM     53   C  GU6 D   3      60.005 110.299  60.4380  0.00  0.00     0.000 C
ATOM     54   O  GU6 D   3      60.025 109.069  59.7600  0.00  0.00     0.000 O
ATOM     55   S  GU6 D   3      61.260 108.644  58.9560  0.00  0.00     0.000 S
ATOM     56   O  GU6 D   3      62.357 108.443  59.9320  0.00  0.00     0.000 O
ATOM     57   O  GU6 D   3      60.953 107.389  58.2540  0.00  0.00     0.000 OA
ATOM     58   O  GU6 D   3      61.576 109.746  58.0200  0.00  0.00     0.000 OA
ENDBRANCH 41 53
BRANCH 37 59
ATOM     59  O4  Z9K D   4      57.318 108.278  63.0180  0.00  0.00     0.000 O
BRANCH 59 63
ATOM     60  C1  Z9K D   4      56.062 104.669  63.9360  0.00  0.00     0.000 C
ATOM     61  C2  Z9K D   4      55.797 105.427  65.2660  0.00  0.00     0.000 C
ATOM     62  C3  Z9K D   4      56.132 106.920  64.8340  0.00  0.00     0.000 C
ATOM     63  C4  Z9K D   4      57.436 107.202  63.9940  0.00  0.00     0.000 C
ATOM     64  C5  Z9K D   4      57.952 106.036  63.1370  0.00  0.00     0.000 C
ATOM     65  O5  Z9K D   4      56.731 105.342  62.7690  0.00  0.00     0.000 O
ATOM     66   O  Z9K D   4      56.204 107.831  65.9450  0.00  0.00     0.000 O
ATOM     67   C  Z9K D   4      54.954 108.372  66.3410  0.00  0.00     0.000 C
BRANCH 61 68
ATOM     68   O  Z9K D   4      54.416 105.384  65.4950  0.00  0.00     0.000 O
ATOM     69   O  Z9K D   4      55.722 105.324  67.6950  0.00  0.00     0.000 OA
ATOM     70   S  Z9K D   4      54.990 104.535  66.7500  0.00  0.00     0.000 S
ATOM     71   O  Z9K D   4      55.345 103.224  66.3020  0.00  0.00     0.000 OA
ATOM     72   O  Z9K D   4      53.590 104.581  67.0250  0.00  0.00     0.000 OA
ENDBRANCH 61 68
BRANCH 64 73
ATOM     73   C  Z9K D   4      58.881 106.548  62.0160  0.00  0.00     0.000 C
ATOM     74   O  Z9K D   4      60.042 106.981  62.2740  0.00  0.00     0.000 O
ATOM     75   O  Z9K D   4      58.527 106.549  60.8120  0.00  0.00     0.000 OA
ENDBRANCH 64 73
BRANCH 60 76
ATOM     76  O4  Z9L D   5      56.732 103.411  63.7410  0.00  0.00     0.000 O
BRANCH 76 80
ATOM     77  C1  Z9L D   5      56.664  99.979  61.6960  0.00  0.00     0.000 C
ATOM     78  C2  Z9L D   5      57.999 100.755  61.2650  0.00  0.00     0.000 C
ATOM     79  C3  Z9L D   5      58.265 101.949  62.4340  0.00  0.00     0.000 C
ATOM     80  C4  Z9L D   5      56.736 102.520  62.6560  0.00  0.00     0.000 C
ATOM     81  C5  Z9L D   5      55.339 101.741  62.8620  0.00  0.00     0.000 C
ATOM     82  O5  Z9L D   5      55.355 100.635  61.9470  0.00  0.00     0.000 O
ATOM     83   C  Z9L D   5      55.872  98.343  63.3050  0.00  0.00     0.000 C
ATOM     84   C  Z9L D   5      55.872  98.343  63.3050  0.00  0.00     0.000 C
BRANCH 78 85
ATOM     85   O  Z9L D   5      59.054  99.848  61.2910  0.00  0.00     0.000 O
ATOM     86   O  Z9L D   5      59.992  99.196  59.7400  0.00  0.00     0.000 OA
ATOM     87   S  Z9L D   5      58.993 100.221  59.7290  0.00  0.00     0.000 S
ATOM     88   O  Z9L D   5      59.702 101.431  59.3930  0.00  0.00     0.000 OA
ATOM     89   O  Z9L D   5      57.907  99.677  58.9900  0.00  0.00     0.000 OA
ENDBRANCH 78 85
BRANCH 79 90
ATOM     90   O  Z9L D   5      58.924 103.050  61.8940  0.00  0.00     0.000 O
ATOM     91   S  Z9L D   5      59.959 102.655  63.0380  0.00  0.00     0.000 S
ATOM     92   O  Z9L D   5      60.541 101.342  63.1300  0.00  0.00     0.000 OA
ATOM     93   O  Z9L D   5      59.678 103.426  64.2230  0.00  0.00     0.000 O
ATOM     94   O  Z9L D   5      60.820 103.443  62.2160  0.00  0.00     0.000 OA
ENDBRANCH 79 90
BRANCH 81 95
ATOM     95   C  Z9L D   5      53.947 102.671  62.9660  0.00  0.00     0.000 C
ATOM     96   S  Z9L D   5      52.405 103.410  61.9450  0.00  0.00     0.000 S
ATOM     97   O  Z9L D   5      53.927 103.140  61.6450  0.00  0.00     0.000 O
ATOM     98   O  Z9L D   5      52.352 104.544  62.8320  0.00  0.00     0.000 OA
ATOM     99   O  Z9L D   5      51.604 102.254  62.1720  0.00  0.00     0.000 OA
ATOM    100   O  Z9L D   5      52.448 103.895  60.5880  0.00  0.00     0.000 O
ENDBRANCH 81 95
ENDBRANCH 76 80
ENDBRANCH 60 76
ENDBRANCH 59 63
ENDBRANCH 37 59
ENDBRANCH 36 40
ENDBRANCH 23 36
ENDBRANCH 22 26
ENDBRANCH 1 22
TORSDOF 19
ENDMDL
MODEL 68
REMARK VINA RESULT:      -0.4    148.561    153.606
ROOT
ATOM      1  C1  Z9H D   1     134.960  56.266 103.1330  0.00  0.00     0.000 C
ATOM      2  C2  Z9H D   1     136.379  55.850 103.5890  0.00  0.00     0.000 C
ATOM      3  C3  Z9H D   1     137.118  57.182 103.2540  0.00  0.00     0.000 C
ATOM      4  C4  Z9H D   1     136.871  57.747 101.7940  0.00  0.00     0.000 C
ATOM      5  C5  Z9H D   1     135.434  57.868 101.1470  0.00  0.00     0.000 C
ATOM      6  O5  Z9H D   1     134.737  56.770 101.7870  0.00  0.00     0.000 O
ATOM      7   O  Z9H D   1     138.519  57.087 103.5190  0.00  0.00     0.000 O
ATOM      8   C  Z9H D   1     138.947  57.639 104.7760  0.00  0.00     0.000 C
ATOM      9   O  Z9H D   1     137.453  59.055 101.7800  0.00  0.00     0.000 O
ATOM     10   C  Z9H D   1     138.756  59.145 101.1970  0.00  0.00     0.000 C
ENDROOT
BRANCH 2 11
ATOM     11   O  Z9H D   1     136.247  55.847 104.9870  0.00  0.00     0.000 O
ATOM     12   O  Z9H D   1     136.321  54.294 106.0550  0.00  0.00     0.000 OA
ATOM     13   S  Z9H D   1     136.501  54.318 104.6420  0.00  0.00     0.000 S
ATOM     14   O  Z9H D   1     137.867  54.169 104.2290  0.00  0.00     0.000 OA
ATOM     15   O  Z9H D   1     135.362  53.724 103.9790  0.00  0.00     0.000 O
ENDBRANCH 2 11
BRANCH 5 16
ATOM     16   C  Z9H D   1     135.420  58.057  99.4840  0.00  0.00     0.000 C
ATOM     17   S  Z9H D   1     134.445  58.913  97.9490  0.00  0.00     0.000 S
ATOM     18   O  Z9H D   1     134.873  59.353  99.4420  0.00  0.00     0.000 O
ATOM     19   O  Z9H D   1     133.445  57.886  97.8860  0.00  0.00     0.000 O
ATOM     20   O  Z9H D   1     135.571  58.959  97.0820  0.00  0.00     0.000 OA
ATOM     21   O  Z9H D   1     133.866  60.224  97.9820  0.00  0.00     0.000 OA
ENDBRANCH 5 16
BRANCH 1 22
ATOM     22  O4  GU1 D   2     134.344  57.343 103.9280  0.00  0.00     0.000 O
BRANCH 22 26
ATOM     23  C1  GU1 D   2     130.805  58.796 105.4550  0.00  0.00     0.000 C
ATOM     24  C2  GU1 D   2     130.899  57.279 105.3920  0.00  0.00     0.000 C
ATOM     25  C3  GU1 D   2     132.332  56.878 105.1930  0.00  0.00     0.000 C
ATOM     26  C4  GU1 D   2     132.935  57.590 103.9910  0.00  0.00     0.000 C
ATOM     27  C5  GU1 D   2     132.695  59.099 104.1010  0.00  0.00     0.000 C
ATOM     28  O5  GU1 D   2     131.304  59.373 104.2540  0.00  0.00     0.000 O
ATOM     29   O  GU1 D   2     130.428  56.667 106.5860  0.00  0.00     0.000 O
ATOM     30   C  GU1 D   2     129.079  56.227 106.5130  0.00  0.00     0.000 C
ATOM     31   C  GU1 D   2     132.790  54.687 106.0790  0.00  0.00     0.000 C
ATOM     32   O  GU1 D   2     132.378  55.467 104.9590  0.00  0.00     0.000 O
BRANCH 27 33
ATOM     33   C  GU1 D   2     133.175  59.821 102.8650  0.00  0.00     0.000 C
ATOM     34   O  GU1 D   2     132.537  59.697 101.8390  0.00  0.00     0.000 OA
ATOM     35   O  GU1 D   2     134.180  60.514 102.9010  0.00  0.00     0.000 O
ENDBRANCH 27 33
BRANCH 23 36
ATOM     36  O4  GU6 D   3     129.517  59.441 105.3940  0.00  0.00     0.000 O
BRANCH 36 40
ATOM     37  C1  GU6 D   3     126.132  61.338 104.1150  0.00  0.00     0.000 C
ATOM     38  C2  GU6 D   3     126.440  61.551 105.5920  0.00  0.00     0.000 C
ATOM     39  C3  GU6 D   3     127.827  61.049 105.8960  0.00  0.00     0.000 C
ATOM     40  C4  GU6 D   3     128.518  60.282 104.8540  0.00  0.00     0.000 C
ATOM     41  C5  GU6 D   3     127.490  59.361 104.1150  0.00  0.00     0.000 C
ATOM     42  O5  GU6 D   3     126.216  59.950 103.8310  0.00  0.00     0.000 O
BRANCH 38 43
ATOM     43   O  GU6 D   3     126.337  62.921 105.9290  0.00  0.00     0.000 O
ATOM     44   S  GU6 D   3     125.374  63.218 107.0710  0.00  0.00     0.000 S
ATOM     45   O  GU6 D   3     124.004  63.256 106.5300  0.00  0.00     0.000 OA
ATOM     46   O  GU6 D   3     125.477  62.136 108.0670  0.00  0.00     0.000 O
ATOM     47   O  GU6 D   3     125.741  64.493 107.6770  0.00  0.00     0.000 OA
ENDBRANCH 38 43
BRANCH 39 48
ATOM     48   O  GU6 D   3     128.526  61.496 107.0420  0.00  0.00     0.000 O
ATOM     49   S  GU6 D   3     129.591  62.583 107.1790  0.00  0.00     0.000 S
ATOM     50   O  GU6 D   3     129.087  63.855 106.6490  0.00  0.00     0.000 OA
ATOM     51   O  GU6 D   3     129.803  62.660 108.6310  0.00  0.00     0.000 OA
ATOM     52   O  GU6 D   3     130.800  62.167 106.4340  0.00  0.00     0.000 O
ENDBRANCH 39 48
BRANCH 41 53
ATOM     53   C  GU6 D   3     127.658  57.941 103.6450  0.00  0.00     0.000 C
ATOM     54   O  GU6 D   3     128.642  58.177 102.6730  0.00  0.00     0.000 O
ATOM     55   S  GU6 D   3     129.128  57.039 101.7640  0.00  0.00     0.000 S
ATOM     56   O  GU6 D   3     127.979  56.654 100.9120  0.00  0.00     0.000 O
ATOM     57   O  GU6 D   3     130.241  57.538 100.9430  0.00  0.00     0.000 OA
ATOM     58   O  GU6 D   3     129.537  55.921 102.6430  0.00  0.00     0.000 OA
ENDBRANCH 41 53
BRANCH 37 59
ATOM     59  O4  Z9K D   4     126.770  62.039 103.0260  0.00  0.00     0.000 O
BRANCH 59 63
ATOM     60  C1  Z9K D   4     127.475  64.973 100.5080  0.00  0.00     0.000 C
ATOM     61  C2  Z9K D   4     126.138  65.439 101.1460  0.00  0.00     0.000 C
ATOM     62  C3  Z9K D   4     125.953  64.349 102.2890  0.00  0.00     0.000 C
ATOM     63  C4  Z9K D   4     126.193  62.829 101.9460  0.00  0.00     0.000 C
ATOM     64  C5  Z9K D   4     127.152  62.543 100.7810  0.00  0.00     0.000 C
ATOM     65  O5  Z9K D   4     128.092  63.647 100.8600  0.00  0.00     0.000 O
ATOM     66   O  Z9K D   4     124.654  64.388 102.9080  0.00  0.00     0.000 O
ATOM     67   C  Z9K D   4     124.539  65.321 103.9690  0.00  0.00     0.000 C
BRANCH 61 68
ATOM     68   O  Z9K D   4     126.394  66.653 101.7980  0.00  0.00     0.000 O
ATOM     69   O  Z9K D   4     124.017  66.595 100.8520  0.00  0.00     0.000 OA
ATOM     70   S  Z9K D   4     125.341  67.104 100.6530  0.00  0.00     0.000 S
ATOM     71   O  Z9K D   4     126.024  67.190  99.3990  0.00  0.00     0.000 OA
ATOM     72   O  Z9K D   4     125.536  68.314 101.3850  0.00  0.00     0.000 OA
ENDBRANCH 61 68
BRANCH 64 73
ATOM     73   C  Z9K D   4     127.693  61.100 100.8560  0.00  0.00     0.000 C
ATOM     74   O  Z9K D   4     128.892  60.866 101.1880  0.00  0.00     0.000 O
ATOM     75   O  Z9K D   4     126.969  60.108 100.6000  0.00  0.00     0.000 OA
ENDBRANCH 64 73
BRANCH 60 76
ATOM     76  O4  Z9L D   5     127.821  64.893  99.1140  0.00  0.00     0.000 O
BRANCH 76 80
ATOM     77  C1  Z9L D   5     130.795  65.300  96.4770  0.00  0.00     0.000 C
ATOM     78  C2  Z9L D   5     130.362  63.756  96.4600  0.00  0.00     0.000 C
ATOM     79  C3  Z9L D   5     128.844  63.671  97.2020  0.00  0.00     0.000 C
ATOM     80  C4  Z9L D   5     129.055  64.695  98.4740  0.00  0.00     0.000 C
ATOM     81  C5  Z9L D   5     129.705  66.170  98.5440  0.00  0.00     0.000 C
ATOM     82  O5  Z9L D   5     130.865  66.140  97.7000  0.00  0.00     0.000 O
ATOM     83   C  Z9L D   5     130.318  67.403  95.3610  0.00  0.00     0.000 C
ATOM     84   C  Z9L D   5     130.318  67.403  95.3610  0.00  0.00     0.000 C
BRANCH 78 85
ATOM     85   O  Z9L D   5     130.244  63.354  95.1330  0.00  0.00     0.000 O
ATOM     86   O  Z9L D   5     131.423  62.118  94.2430  0.00  0.00     0.000 OA
ATOM     87   S  Z9L D   5     131.464  62.437  95.6380  0.00  0.00     0.000 S
ATOM     88   O  Z9L D   5     131.045  61.232  96.3090  0.00  0.00     0.000 OA
ATOM     89   O  Z9L D   5     132.710  63.093  95.8350  0.00  0.00     0.000 OA
ENDBRANCH 78 85
BRANCH 79 90
ATOM     90   O  Z9L D   5     128.655  62.443  97.8300  0.00  0.00     0.000 O
ATOM     91   S  Z9L D   5     127.401  62.436  96.8490  0.00  0.00     0.000 S
ATOM     92   O  Z9L D   5     127.536  62.592  95.4240  0.00  0.00     0.000 OA
ATOM     93   O  Z9L D   5     126.247  62.950  97.5450  0.00  0.00     0.000 O
ATOM     94   O  Z9L D   5     127.475  61.039  97.1300  0.00  0.00     0.000 OA
ENDBRANCH 79 90
BRANCH 81 95
ATOM     95   C  Z9L D   5     129.836  66.882 100.0570  0.00  0.00     0.000 C
ATOM     96   S  Z9L D   5     131.055  67.220 101.5950  0.00  0.00     0.000 S
ATOM     97   O  Z9L D   5     130.818  66.033 100.5880  0.00  0.00     0.000 O
ATOM     98   O  Z9L D   5     129.929  67.232 102.4940  0.00  0.00     0.000 OA
ATOM     99   O  Z9L D   5     131.562  68.423 101.0270  0.00  0.00     0.000 OA
ATOM    100   O  Z9L D   5     132.038  66.298 102.1090  0.00  0.00     0.000 O
ENDBRANCH 81 95
ENDBRANCH 76 80
ENDBRANCH 60 76
ENDBRANCH 59 63
ENDBRANCH 37 59
ENDBRANCH 36 40
ENDBRANCH 23 36
ENDBRANCH 22 26
ENDBRANCH 1 22
TORSDOF 19
ENDMDL
MODEL 69
REMARK VINA RESULT:      -0.4    147.805    152.021
ROOT
ATOM      1  C1  Z9H D   1      11.401 130.221 107.5470  0.00  0.00     0.000 C
ATOM      2  C2  Z9H D   1      10.727 129.847 106.2050  0.00  0.00     0.000 C
ATOM      3  C3  Z9H D   1       9.926 131.166 105.9830  0.00  0.00     0.000 C
ATOM      4  C4  Z9H D   1       9.059 131.650 107.2180  0.00  0.00     0.000 C
ATOM      5  C5  Z9H D   1       9.619 131.721 108.6940  0.00  0.00     0.000 C
ATOM      6  O5  Z9H D   1      10.598 130.651 108.6810  0.00  0.00     0.000 O
ATOM      7   O  Z9H D   1       9.121 131.102 104.8050  0.00  0.00     0.000 O
ATOM      8   C  Z9H D   1       9.685 131.725 103.6390  0.00  0.00     0.000 C
ATOM      9   O  Z9H D   1       8.597 132.962 106.8780  0.00  0.00     0.000 O
ATOM     10   C  Z9H D   1       7.258 133.035 106.3790  0.00  0.00     0.000 C
ENDROOT
BRANCH 2 11
ATOM     11   O  Z9H D   1      11.804 129.917 105.3080  0.00  0.00     0.000 O
ATOM     12   O  Z9H D   1      12.546 128.424 104.4240  0.00  0.00     0.000 OA
ATOM     13   S  Z9H D   1      11.424 128.374 105.3000  0.00  0.00     0.000 S
ATOM     14   O  Z9H D   1      10.167 128.223 104.6240  0.00  0.00     0.000 OA
ATOM     15   O  Z9H D   1      11.783 127.730 106.5430  0.00  0.00     0.000 O
ENDBRANCH 2 11
BRANCH 5 16
ATOM     16   C  Z9H D   1       8.454 131.820 109.8910  0.00  0.00     0.000 C
ATOM     17   S  Z9H D   1       7.996 132.673 111.6530  0.00  0.00     0.000 S
ATOM     18   O  Z9H D   1       8.686 133.154 110.2750  0.00  0.00     0.000 O
ATOM     19   O  Z9H D   1       8.765 131.733 112.4160  0.00  0.00     0.000 O
ATOM     20   O  Z9H D   1       6.588 132.575 111.4870  0.00  0.00     0.000 OA
ATOM     21   O  Z9H D   1       8.302 134.028 112.0050  0.00  0.00     0.000 OA
ENDBRANCH 5 16
BRANCH 1 22
ATOM     22  O4  GU1 D   2      12.366 131.332 107.4660  0.00  0.00     0.000 O
BRANCH 22 26
ATOM     23  C1  GU1 D   2      15.911 132.830 108.9350  0.00  0.00     0.000 C
ATOM     24  C2  GU1 D   2      15.854 131.314 108.8250  0.00  0.00     0.000 C
ATOM     25  C3  GU1 D   2      14.705 130.922 107.9420  0.00  0.00     0.000 C
ATOM     26  C4  GU1 D   2      13.409 131.562 108.4200  0.00  0.00     0.000 C
ATOM     27  C5  GU1 D   2      13.603 133.071 108.5980  0.00  0.00     0.000 C
ATOM     28  O5  GU1 D   2      14.695 133.333 109.4760  0.00  0.00     0.000 O
ATOM     29   O  GU1 D   2      17.047 130.776 108.2670  0.00  0.00     0.000 O
ATOM     30   C  GU1 D   2      17.977 130.312 109.2350  0.00  0.00     0.000 C
ATOM     31   C  GU1 D   2      15.075 128.804 106.8620  0.00  0.00     0.000 C
ATOM     32   O  GU1 D   2      14.559 129.500 107.9940  0.00  0.00     0.000 O
BRANCH 27 33
ATOM     33   C  GU1 D   2      12.371 133.715 109.1870  0.00  0.00     0.000 C
ATOM     34   O  GU1 D   2      12.094 133.481 110.3450  0.00  0.00     0.000 OA
ATOM     35   O  GU1 D   2      11.674 134.455 108.5100  0.00  0.00     0.000 O
ENDBRANCH 27 33
BRANCH 23 36
ATOM     36  O4  GU6 D   3      16.767 133.450 109.9160  0.00  0.00     0.000 O
BRANCH 36 40
ATOM     37  C1  GU6 D   3      18.236 135.239 113.2820  0.00  0.00     0.000 C
ATOM     38  C2  GU6 D   3      19.027 135.555 112.0190  0.00  0.00     0.000 C
ATOM     39  C3  GU6 D   3      18.260 135.081 110.8120  0.00  0.00     0.000 C
ATOM     40  C4  GU6 D   3      17.075 134.247 111.0410  0.00  0.00     0.000 C
ATOM     41  C5  GU6 D   3      17.345 133.273 112.2360  0.00  0.00     0.000 C
ATOM     42  O5  GU6 D   3      18.040 133.835 113.3550  0.00  0.00     0.000 O
BRANCH 38 43
ATOM     43   O  GU6 D   3      19.273 136.944 111.9200  0.00  0.00     0.000 O
ATOM     44   S  GU6 D   3      20.743 137.314 111.7750  0.00  0.00     0.000 S
ATOM     45   O  GU6 D   3      21.362 137.306 113.1110  0.00  0.00     0.000 OA
ATOM     46   O  GU6 D   3      21.401 136.305 110.9250  0.00  0.00     0.000 O
ATOM     47   O  GU6 D   3      20.838 138.630 111.1520  0.00  0.00     0.000 OA
ENDBRANCH 38 43
BRANCH 39 48
ATOM     48   O  GU6 D   3      18.529 135.609 109.5270  0.00  0.00     0.000 O
ATOM     49   S  GU6 D   3      17.813 136.713 108.7500  0.00  0.00     0.000 S
ATOM     50   O  GU6 D   3      17.761 137.942 109.5500  0.00  0.00     0.000 OA
ATOM     51   O  GU6 D   3      18.660 136.887 107.5620  0.00  0.00     0.000 OA
ATOM     52   O  GU6 D   3      16.442 136.260 108.4270  0.00  0.00     0.000 O
ENDBRANCH 39 48
BRANCH 41 53
ATOM     53   C  GU6 D   3      16.963 131.825 112.3830  0.00  0.00     0.000 C
ATOM     54   O  GU6 D   3      15.569 131.997 112.4040  0.00  0.00     0.000 O
ATOM     55   S  GU6 D   3      14.642 130.802 112.6580  0.00  0.00     0.000 S
ATOM     56   O  GU6 D   3      14.890 130.355 114.0480  0.00  0.00     0.000 O
ATOM     57   O  GU6 D   3      13.250 131.246 112.4950  0.00  0.00     0.000 OA
ATOM     58   O  GU6 D   3      15.009 129.747 111.6860  0.00  0.00     0.000 OA
ENDBRANCH 41 53
BRANCH 37 59
ATOM     59  O4  Z9K D   4      16.992 135.866 113.6590  0.00  0.00     0.000 O
BRANCH 59 63
ATOM     60  C1  Z9K D   4      14.642 138.640 115.1530  0.00  0.00     0.000 C
ATOM     61  C2  Z9K D   4      16.028 139.104 115.6800  0.00  0.00     0.000 C
ATOM     62  C3  Z9K D   4      16.992 138.090 114.9250  0.00  0.00     0.000 C
ATOM     63  C4  Z9K D   4      16.619 136.559 114.8860  0.00  0.00     0.000 C
ATOM     64  C5  Z9K D   4      15.124 136.226 115.0100  0.00  0.00     0.000 C
ATOM     65  O5  Z9K D   4      14.487 137.364 114.3720  0.00  0.00     0.000 O
ATOM     66   O  Z9K D   4      18.347 138.127 115.4080  0.00  0.00     0.000 O
ATOM     67   C  Z9K D   4      19.156 139.127 114.8090  0.00  0.00     0.000 C
BRANCH 61 68
ATOM     68   O  Z9K D   4      16.276 140.368 115.1290  0.00  0.00     0.000 O
ATOM     69   O  Z9K D   4      17.275 140.169 117.4760  0.00  0.00     0.000 OA
ATOM     70   S  Z9K D   4      16.189 140.704 116.7110  0.00  0.00     0.000 S
ATOM     71   O  Z9K D   4      14.815 140.722 117.1090  0.00  0.00     0.000 OA
ATOM     72   O  Z9K D   4      16.537 141.968 116.1470  0.00  0.00     0.000 OA
ENDBRANCH 61 68
BRANCH 64 73
ATOM     73   C  Z9K D   4      14.830 134.811 114.4680  0.00  0.00     0.000 C
ATOM     74   O  Z9K D   4      15.193 133.778 115.1020  0.00  0.00     0.000 O
ATOM     75   O  Z9K D   4      14.217 134.631 113.3880  0.00  0.00     0.000 OA
ENDBRANCH 64 73
BRANCH 60 76
ATOM     76  O4  Z9L D   5      13.416 138.475 115.8850  0.00  0.00     0.000 O
BRANCH 76 80
ATOM     77  C1  Z9L D   5       9.451 138.953 115.7260  0.00  0.00     0.000 C
ATOM     78  C2  Z9L D   5       9.730 137.378 115.8450  0.00  0.00     0.000 C
ATOM     79  C3  Z9L D   5      11.329 137.206 116.3690  0.00  0.00     0.000 C
ATOM     80  C4  Z9L D   5      12.086 138.347 115.4520  0.00  0.00     0.000 C
ATOM     81  C5  Z9L D   5      11.690 139.878 115.1350  0.00  0.00     0.000 C
ATOM     82  O5  Z9L D   5      10.271 139.892 114.9190  0.00  0.00     0.000 O
ATOM     83   C  Z9L D   5       9.030 140.901 117.1110  0.00  0.00     0.000 C
ATOM     84   C  Z9L D   5       9.030 140.901 117.1110  0.00  0.00     0.000 C
BRANCH 78 85
ATOM     85   O  Z9L D   5       8.875 136.860 116.8130  0.00  0.00     0.000 O
ATOM     86   O  Z9L D   5       7.397 135.675 116.4650  0.00  0.00     0.000 OA
ATOM     87   S  Z9L D   5       8.353 136.109 115.4920  0.00  0.00     0.000 S
ATOM     88   O  Z9L D   5       9.109 134.928 115.1570  0.00  0.00     0.000 OA
ATOM     89   O  Z9L D   5       7.613 136.897 114.5660  0.00  0.00     0.000 OA
ENDBRANCH 78 85
BRANCH 79 90
ATOM     90   O  Z9L D   5      11.891 136.021 115.9020  0.00  0.00     0.000 O
ATOM     91   S  Z9L D   5      12.080 135.807 117.4690  0.00  0.00     0.000 S
ATOM     92   O  Z9L D   5      10.977 135.859 118.3920  0.00  0.00     0.000 OA
ATOM     93   O  Z9L D   5      13.394 136.257 117.8570  0.00  0.00     0.000 O
ATOM     94   O  Z9L D   5      12.209 134.453 117.0390  0.00  0.00     0.000 OA
ENDBRANCH 79 90
BRANCH 81 95
ATOM     95   C  Z9L D   5      12.670 140.720 114.0660  0.00  0.00     0.000 C
ATOM     96   S  Z9L D   5      12.907 141.272 112.1670  0.00  0.00     0.000 S
ATOM     97   O  Z9L D   5      12.365 139.992 112.9070  0.00  0.00     0.000 O
ATOM     98   O  Z9L D   5      14.337 141.277 112.3390  0.00  0.00     0.000 OA
ATOM     99   O  Z9L D   5      12.136 142.458 112.3360  0.00  0.00     0.000 OA
ATOM    100   O  Z9L D   5      12.589 140.470 111.0120  0.00  0.00     0.000 O
ENDBRANCH 81 95
ENDBRANCH 76 80
ENDBRANCH 60 76
ENDBRANCH 59 63
ENDBRANCH 37 59
ENDBRANCH 36 40
ENDBRANCH 23 36
ENDBRANCH 22 26
ENDBRANCH 1 22
TORSDOF 19
ENDMDL
MODEL 70
REMARK VINA RESULT:      -0.4    117.960    123.707
ROOT
ATOM      1  C1  Z9H D   1      73.259 127.557  52.6740  0.00  0.00     0.000 C
ATOM      2  C2  Z9H D   1      74.692 126.973  52.6530  0.00  0.00     0.000 C
ATOM      3  C3  Z9H D   1      74.414 125.673  53.4680  0.00  0.00     0.000 C
ATOM      4  C4  Z9H D   1      73.646 125.882  54.8390  0.00  0.00     0.000 C
ATOM      5  C5  Z9H D   1      72.346 126.771  54.9740  0.00  0.00     0.000 C
ATOM      6  O5  Z9H D   1      72.565 127.760  53.9360  0.00  0.00     0.000 O
ATOM      7   O  Z9H D   1      75.609 124.918  53.6790  0.00  0.00     0.000 O
ATOM      8   C  Z9H D   1      75.812 123.821  52.7720  0.00  0.00     0.000 C
ATOM      9   O  Z9H D   1      73.310 124.569  55.3000  0.00  0.00     0.000 O
ATOM     10   C  Z9H D   1      74.182 124.023  56.2950  0.00  0.00     0.000 C
ENDROOT
BRANCH 2 11
ATOM     11   O  Z9H D   1      74.815 126.549  51.3200  0.00  0.00     0.000 O
ATOM     12   O  Z9H D   1      75.984 127.332  50.0630  0.00  0.00     0.000 OA
ATOM     13   S  Z9H D   1      75.884 127.720  51.4300  0.00  0.00     0.000 S
ATOM     14   O  Z9H D   1      76.973 127.262  52.2440  0.00  0.00     0.000 OA
ATOM     15   O  Z9H D   1      75.249 129.013  51.5410  0.00  0.00     0.000 O
ENDBRANCH 2 11
BRANCH 5 16
ATOM     16   C  Z9H D   1      71.955 127.221  56.5370  0.00  0.00     0.000 C
ATOM     17   S  Z9H D   1      70.431 127.523  57.8130  0.00  0.00     0.000 S
ATOM     18   O  Z9H D   1      70.797 126.433  56.6800  0.00  0.00     0.000 O
ATOM     19   O  Z9H D   1      70.150 128.839  57.3150  0.00  0.00     0.000 O
ATOM     20   O  Z9H D   1      71.191 127.282  58.9900  0.00  0.00     0.000 OA
ATOM     21   O  Z9H D   1      69.252 126.711  57.8800  0.00  0.00     0.000 OA
ENDBRANCH 5 16
BRANCH 1 22
ATOM     22  O4  GU1 D   2      72.257 126.764  51.9410  0.00  0.00     0.000 O
BRANCH 22 26
ATOM     23  C1  GU1 D   2      68.858 126.946  49.6210  0.00  0.00     0.000 C
ATOM     24  C2  GU1 D   2      69.842 128.085  49.4040  0.00  0.00     0.000 C
ATOM     25  C3  GU1 D   2      71.170 127.715  49.9970  0.00  0.00     0.000 C
ATOM     26  C4  GU1 D   2      71.018 127.290  51.4500  0.00  0.00     0.000 C
ATOM     27  C5  GU1 D   2      69.933 126.216  51.5720  0.00  0.00     0.000 C
ATOM     28  O5  GU1 D   2      68.708 126.679  51.0110  0.00  0.00     0.000 O
ATOM     29   O  GU1 D   2      70.034 128.367  48.0230  0.00  0.00     0.000 O
ATOM     30   C  GU1 D   2      69.238 129.439  47.5390  0.00  0.00     0.000 C
ATOM     31   C  GU1 D   2      72.995 128.834  48.8980  0.00  0.00     0.000 C
ATOM     32   O  GU1 D   2      72.025 128.861  49.9420  0.00  0.00     0.000 O
BRANCH 27 33
ATOM     33   C  GU1 D   2      69.675 125.861  53.0170  0.00  0.00     0.000 C
ATOM     34   O  GU1 D   2      70.037 124.775  53.4190  0.00  0.00     0.000 OA
ATOM     35   O  GU1 D   2      69.118 126.654  53.7610  0.00  0.00     0.000 O
ENDBRANCH 27 33
BRANCH 23 36
ATOM     36  O4  GU6 D   3      67.453 127.147  49.3650  0.00  0.00     0.000 O
BRANCH 36 40
ATOM     37  C1  GU6 D   3      63.458 127.909  49.7560  0.00  0.00     0.000 C
ATOM     38  C2  GU6 D   3      63.808 127.045  48.5510  0.00  0.00     0.000 C
ATOM     39  C3  GU6 D   3      65.244 126.601  48.6480  0.00  0.00     0.000 C
ATOM     40  C4  GU6 D   3      66.079 127.215  49.6870  0.00  0.00     0.000 C
ATOM     41  C5  GU6 D   3      65.711 128.729  49.8250  0.00  0.00     0.000 C
ATOM     42  O5  GU6 D   3      64.314 129.040  49.7660  0.00  0.00     0.000 O
BRANCH 38 43
ATOM     43   O  GU6 D   3      62.957 125.917  48.4830  0.00  0.00     0.000 O
ATOM     44   S  GU6 D   3      62.218 125.766  47.1600  0.00  0.00     0.000 S
ATOM     45   O  GU6 D   3      61.037 126.647  47.1800  0.00  0.00     0.000 OA
ATOM     46   O  GU6 D   3      63.118 126.178  46.0680  0.00  0.00     0.000 O
ATOM     47   O  GU6 D   3      61.835 124.368  46.9920  0.00  0.00     0.000 OA
ENDBRANCH 38 43
BRANCH 39 48
ATOM     48   O  GU6 D   3      65.706 125.474  47.9280  0.00  0.00     0.000 O
ATOM     49   S  GU6 D   3      65.902 124.029  48.3860  0.00  0.00     0.000 S
ATOM     50   O  GU6 D   3      64.653 123.505  48.9510  0.00  0.00     0.000 OA
ATOM     51   O  GU6 D   3      66.257 123.331  47.1430  0.00  0.00     0.000 OA
ATOM     52   O  GU6 D   3      66.974 123.990  49.4050  0.00  0.00     0.000 O
ENDBRANCH 39 48
BRANCH 41 53
ATOM     53   C  GU6 D   3      66.621 129.911  50.0270  0.00  0.00     0.000 C
ATOM     54   O  GU6 D   3      67.095 129.570  51.3040  0.00  0.00     0.000 O
ATOM     55   S  GU6 D   3      68.014 130.527  52.0740  0.00  0.00     0.000 S
ATOM     56   O  GU6 D   3      67.211 131.733  52.3860  0.00  0.00     0.000 O
ATOM     57   O  GU6 D   3      68.454 129.862  53.3090  0.00  0.00     0.000 OA
ATOM     58   O  GU6 D   3      69.148 130.859  51.1830  0.00  0.00     0.000 OA
ENDBRANCH 41 53
BRANCH 37 59
ATOM     59  O4  Z9K D   4      63.360 127.433  51.1150  0.00  0.00     0.000 O
BRANCH 59 63
ATOM     60  C1  Z9K D   4      61.703 125.723  54.2420  0.00  0.00     0.000 C
ATOM     61  C2  Z9K D   4      60.478 125.876  53.2990  0.00  0.00     0.000 C
ATOM     62  C3  Z9K D   4      61.183 126.396  51.9720  0.00  0.00     0.000 C
ATOM     63  C4  Z9K D   4      62.266 127.536  52.0740  0.00  0.00     0.000 C
ATOM     64  C5  Z9K D   4      63.012 127.641  53.4130  0.00  0.00     0.000 C
ATOM     65  O5  Z9K D   4      63.056 126.262  53.8660  0.00  0.00     0.000 O
ATOM     66   O  Z9K D   4      60.252 126.858  50.9770  0.00  0.00     0.000 O
ATOM     67   C  Z9K D   4      59.735 125.838  50.1390  0.00  0.00     0.000 C
BRANCH 61 68
ATOM     68   O  Z9K D   4      60.012 124.585  53.0170  0.00  0.00     0.000 O
ATOM     69   O  Z9K D   4      58.086 126.268  53.1000  0.00  0.00     0.000 OA
ATOM     70   S  Z9K D   4      58.758 125.227  53.8170  0.00  0.00     0.000 S
ATOM     71   O  Z9K D   4      59.052 125.232  55.2180  0.00  0.00     0.000 OA
ATOM     72   O  Z9K D   4      58.259 123.944  53.4410  0.00  0.00     0.000 OA
ENDBRANCH 61 68
BRANCH 64 73
ATOM     73   C  Z9K D   4      64.340 128.409  53.2430  0.00  0.00     0.000 C
ATOM     74   O  Z9K D   4      65.454 127.811  53.2880  0.00  0.00     0.000 O
ATOM     75   O  Z9K D   4      64.367 129.649  53.0500  0.00  0.00     0.000 OA
ENDBRANCH 64 73
BRANCH 60 76
ATOM     76  O4  Z9L D   5      61.817 126.090  55.6280  0.00  0.00     0.000 O
BRANCH 76 80
ATOM     77  C1  Z9L D   5      63.404 125.034  59.1410  0.00  0.00     0.000 C
ATOM     78  C2  Z9L D   5      64.066 126.435  58.7280  0.00  0.00     0.000 C
ATOM     79  C3  Z9L D   5      63.089 127.096  57.5170  0.00  0.00     0.000 C
ATOM     80  C4  Z9L D   5      62.778 125.764  56.5990  0.00  0.00     0.000 C
ATOM     81  C5  Z9L D   5      62.330 124.273  57.0220  0.00  0.00     0.000 C
ATOM     82  O5  Z9L D   5      63.098 123.937  58.1870  0.00  0.00     0.000 O
ATOM     83   C  Z9L D   5      61.530 124.132  60.3940  0.00  0.00     0.000 C
ATOM     84   C  Z9L D   5      61.530 124.132  60.3940  0.00  0.00     0.000 C
BRANCH 78 85
ATOM     85   O  Z9L D   5      64.041 127.269  59.8410  0.00  0.00     0.000 O
ATOM     86   O  Z9L D   5      65.590 127.841  60.8320  0.00  0.00     0.000 OA
ATOM     87   S  Z9L D   5      65.621 127.088  59.6160  0.00  0.00     0.000 S
ATOM     88   O  Z9L D   5      66.175 127.986  58.6330  0.00  0.00     0.000 OA
ATOM     89   O  Z9L D   5      66.171 125.825  59.9710  0.00  0.00     0.000 OA
ENDBRANCH 78 85
BRANCH 79 90
ATOM     90   O  Z9L D   5      63.828 127.895  56.6490  0.00  0.00     0.000 O
ATOM     91   S  Z9L D   5      62.741 128.956  57.1280  0.00  0.00     0.000 S
ATOM     92   O  Z9L D   5      62.529 129.268  58.5170  0.00  0.00     0.000 OA
ATOM     93   O  Z9L D   5      61.647 128.976  56.1890  0.00  0.00     0.000 O
ATOM     94   O  Z9L D   5      63.734 129.856  56.6380  0.00  0.00     0.000 OA
ENDBRANCH 79 90
BRANCH 81 95
ATOM     95   C  Z9L D   5      62.194 123.134  55.7980  0.00  0.00     0.000 C
ATOM     96   S  Z9L D   5      63.129 121.662  54.8360  0.00  0.00     0.000 S
ATOM     97   O  Z9L D   5      63.554 123.040  55.4680  0.00  0.00     0.000 O
ATOM     98   O  Z9L D   5      62.389 121.965  53.6380  0.00  0.00     0.000 OA
ATOM     99   O  Z9L D   5      62.677 120.673  55.7560  0.00  0.00     0.000 OA
ATOM    100   O  Z9L D   5      64.533 121.628  54.5080  0.00  0.00     0.000 O
ENDBRANCH 81 95
ENDBRANCH 76 80
ENDBRANCH 60 76
ENDBRANCH 59 63
ENDBRANCH 37 59
ENDBRANCH 36 40
ENDBRANCH 23 36
ENDBRANCH 22 26
ENDBRANCH 1 22
TORSDOF 19
ENDMDL
MODEL 71
REMARK VINA RESULT:      -0.4    158.871    163.375
ROOT
ATOM      1  C1  Z9H D   1      12.521 132.398 133.8890  0.00  0.00     0.000 C
ATOM      2  C2  Z9H D   1      11.536 133.410 133.2560  0.00  0.00     0.000 C
ATOM      3  C3  Z9H D   1      10.764 132.420 132.3310  0.00  0.00     0.000 C
ATOM      4  C4  Z9H D   1      11.671 131.496 131.4180  0.00  0.00     0.000 C
ATOM      5  C5  Z9H D   1      12.921 130.699 131.9680  0.00  0.00     0.000 C
ATOM      6  O5  Z9H D   1      13.361 131.563 133.0460  0.00  0.00     0.000 O
ATOM      7   O  Z9H D   1       9.786 133.095 131.5370  0.00  0.00     0.000 O
ATOM      8   C  Z9H D   1       8.440 133.039 132.0390  0.00  0.00     0.000 C
ATOM      9   O  Z9H D   1      10.784 130.538 130.8310  0.00  0.00     0.000 O
ATOM     10   C  Z9H D   1      10.367 130.823 129.4920  0.00  0.00     0.000 C
ENDROOT
BRANCH 2 11
ATOM     11   O  Z9H D   1      10.661 133.672 134.3220  0.00  0.00     0.000 O
ATOM     12   O  Z9H D   1      10.536 135.333 135.2070  0.00  0.00     0.000 OA
ATOM     13   S  Z9H D   1      11.385 135.068 134.0940  0.00  0.00     0.000 S
ATOM     14   O  Z9H D   1      10.912 135.625 132.8590  0.00  0.00     0.000 OA
ATOM     15   O  Z9H D   1      12.767 135.027 134.5120  0.00  0.00     0.000 O
ENDBRANCH 2 11
BRANCH 5 16
ATOM     16   C  Z9H D   1      13.986 130.156 130.7970  0.00  0.00     0.000 C
ATOM     17   S  Z9H D   1      15.204 128.644 130.2760  0.00  0.00     0.000 S
ATOM     18   O  Z9H D   1      13.735 128.778 130.9320  0.00  0.00     0.000 O
ATOM     19   O  Z9H D   1      16.280 129.097 131.1100  0.00  0.00     0.000 O
ATOM     20   O  Z9H D   1      15.142 128.896 128.8790  0.00  0.00     0.000 OA
ATOM     21   O  Z9H D   1      14.913 127.256 130.4840  0.00  0.00     0.000 OA
ENDBRANCH 5 16
BRANCH 1 22
ATOM     22  O4  GU1 D   2      11.892 131.373 134.7410  0.00  0.00     0.000 O
BRANCH 22 26
ATOM     23  C1  GU1 D   2      12.345 129.063 138.1210  0.00  0.00     0.000 C
ATOM     24  C2  GU1 D   2      12.957 130.453 138.2100  0.00  0.00     0.000 C
ATOM     25  C3  GU1 D   2      12.407 131.309 137.1060  0.00  0.00     0.000 C
ATOM     26  C4  GU1 D   2      12.585 130.635 135.7540  0.00  0.00     0.000 C
ATOM     27  C5  GU1 D   2      12.031 129.208 135.8030  0.00  0.00     0.000 C
ATOM     28  O5  GU1 D   2      12.640 128.472 136.8610  0.00  0.00     0.000 O
ATOM     29   O  GU1 D   2      12.665 131.085 139.4500  0.00  0.00     0.000 O
ATOM     30   C  GU1 D   2      13.699 130.960 140.4170  0.00  0.00     0.000 C
ATOM     31   C  GU1 D   2      12.425 133.647 137.6800  0.00  0.00     0.000 C
ATOM     32   O  GU1 D   2      13.122 132.549 137.0970  0.00  0.00     0.000 O
BRANCH 27 33
ATOM     33   C  GU1 D   2      12.302 128.472 134.5120  0.00  0.00     0.000 C
ATOM     34   O  GU1 D   2      13.447 128.161 134.2540  0.00  0.00     0.000 OA
ATOM     35   O  GU1 D   2      11.388 128.195 133.7510  0.00  0.00     0.000 O
ENDBRANCH 27 33
BRANCH 23 36
ATOM     36  O4  GU6 D   3      12.887 127.985 138.9100  0.00  0.00     0.000 O
BRANCH 36 40
ATOM     37  C1  GU6 D   3      14.967 124.709 140.1900  0.00  0.00     0.000 C
ATOM     38  C2  GU6 D   3      13.671 124.955 140.9520  0.00  0.00     0.000 C
ATOM     39  C3  GU6 D   3      12.857 126.003 140.2380  0.00  0.00     0.000 C
ATOM     40  C4  GU6 D   3      13.498 126.731 139.1370  0.00  0.00     0.000 C
ATOM     41  C5  GU6 D   3      14.996 127.005 139.4940  0.00  0.00     0.000 C
ATOM     42  O5  GU6 D   3      15.694 125.927 140.1280  0.00  0.00     0.000 O
BRANCH 38 43
ATOM     43   O  GU6 D   3      12.925 123.758 141.0650  0.00  0.00     0.000 O
ATOM     44   S  GU6 D   3      12.563 123.376 142.4940  0.00  0.00     0.000 S
ATOM     45   O  GU6 D   3      13.722 122.704 143.1070  0.00  0.00     0.000 OA
ATOM     46   O  GU6 D   3      12.255 124.605 143.2470  0.00  0.00     0.000 O
ATOM     47   O  GU6 D   3      11.395 122.501 142.4650  0.00  0.00     0.000 OA
ENDBRANCH 38 43
BRANCH 39 48
ATOM     48   O  GU6 D   3      11.464 126.117 140.4610  0.00  0.00     0.000 O
ATOM     49   S  GU6 D   3      10.292 125.572 139.6450  0.00  0.00     0.000 S
ATOM     50   O  GU6 D   3      10.428 124.121 139.4730  0.00  0.00     0.000 OA
ATOM     51   O  GU6 D   3       9.127 125.902 140.4770  0.00  0.00     0.000 OA
ATOM     52   O  GU6 D   3      10.275 126.240 138.3250  0.00  0.00     0.000 O
ENDBRANCH 39 48
BRANCH 41 53
ATOM     53   C  GU6 D   3      15.817 128.242 139.2510  0.00  0.00     0.000 C
ATOM     54   O  GU6 D   3      15.819 128.197 137.8480  0.00  0.00     0.000 O
ATOM     55   S  GU6 D   3      16.641 129.208 137.0370  0.00  0.00     0.000 S
ATOM     56   O  GU6 D   3      18.067 128.930 137.3280  0.00  0.00     0.000 O
ATOM     57   O  GU6 D   3      16.354 129.008 135.6090  0.00  0.00     0.000 OA
ATOM     58   O  GU6 D   3      16.257 130.559 137.5020  0.00  0.00     0.000 OA
ENDBRANCH 41 53
BRANCH 37 59
ATOM     59  O4  Z9K D   4      15.059 124.088 138.8900  0.00  0.00     0.000 O
BRANCH 59 63
ATOM     60  C1  Z9K D   4      15.181 121.144 136.2890  0.00  0.00     0.000 C
ATOM     61  C2  Z9K D   4      15.384 120.375 137.6240  0.00  0.00     0.000 C
ATOM     62  C3  Z9K D   4      15.150 121.540 138.6810  0.00  0.00     0.000 C
ATOM     63  C4  Z9K D   4      15.838 122.939 138.4470  0.00  0.00     0.000 C
ATOM     64  C5  Z9K D   4      16.155 123.299 136.9880  0.00  0.00     0.000 C
ATOM     65  O5  Z9K D   4      15.086 122.645 136.2550  0.00  0.00     0.000 O
ATOM     66   O  Z9K D   4      15.512 121.170 140.0240  0.00  0.00     0.000 O
ATOM     67   C  Z9K D   4      14.490 120.499 140.7420  0.00  0.00     0.000 C
BRANCH 61 68
ATOM     68   O  Z9K D   4      14.301 119.497 137.7610  0.00  0.00     0.000 O
ATOM     69   O  Z9K D   4      16.436 118.497 138.7550  0.00  0.00     0.000 OA
ATOM     70   S  Z9K D   4      15.549 118.472 137.6310  0.00  0.00     0.000 S
ATOM     71   O  Z9K D   4      15.941 118.387 136.2580  0.00  0.00     0.000 OA
ATOM     72   O  Z9K D   4      14.451 117.591 137.8680  0.00  0.00     0.000 OA
ENDBRANCH 61 68
BRANCH 64 73
ATOM     73   C  Z9K D   4      16.342 124.822 136.8270  0.00  0.00     0.000 C
ATOM     74   O  Z9K D   4      17.369 125.409 137.2770  0.00  0.00     0.000 O
ATOM     75   O  Z9K D   4      15.491 125.535 136.2400  0.00  0.00     0.000 OA
ENDBRANCH 64 73
BRANCH 60 76
ATOM     76  O4  Z9L D   5      15.949 121.052 135.0780  0.00  0.00     0.000 O
BRANCH 76 80
ATOM     77  C1  Z9L D   5      15.743 121.133 131.0870  0.00  0.00     0.000 C
ATOM     78  C2  Z9L D   5      16.610 122.404 131.5390  0.00  0.00     0.000 C
ATOM     79  C3  Z9L D   5      17.083 122.126 133.1390  0.00  0.00     0.000 C
ATOM     80  C4  Z9L D   5      15.692 121.515 133.7770  0.00  0.00     0.000 C
ATOM     81  C5  Z9L D   5      14.680 120.392 133.2180  0.00  0.00     0.000 C
ATOM     82  O5  Z9L D   5      14.545 120.635 131.8100  0.00  0.00     0.000 O
ATOM     83   C  Z9L D   5      16.005 118.810 130.4300  0.00  0.00     0.000 C
ATOM     84   C  Z9L D   5      16.005 118.810 130.4300  0.00  0.00     0.000 C
BRANCH 78 85
ATOM     85   O  Z9L D   5      17.743 122.462 130.7320  0.00  0.00     0.000 O
ATOM     86   O  Z9L D   5      18.085 123.811 129.4000  0.00  0.00     0.000 OA
ATOM     87   S  Z9L D   5      16.985 123.817 130.3160  0.00  0.00     0.000 S
ATOM     88   O  Z9L D   5      17.244 124.924 131.2030  0.00  0.00     0.000 OA
ATOM     89   O  Z9L D   5      15.824 123.670 129.5070  0.00  0.00     0.000 OA
ENDBRANCH 78 85
BRANCH 79 90
ATOM     90   O  Z9L D   5      17.237 123.321 133.8370  0.00  0.00     0.000 O
ATOM     91   S  Z9L D   5      18.692 122.705 134.0360  0.00  0.00     0.000 S
ATOM     92   O  Z9L D   5      19.522 122.316 132.9270  0.00  0.00     0.000 OA
ATOM     93   O  Z9L D   5      18.740 121.989 135.2860  0.00  0.00     0.000 O
ATOM     94   O  Z9L D   5      18.984 124.073 134.3220  0.00  0.00     0.000 OA
ENDBRANCH 79 90
BRANCH 81 95
ATOM     95   C  Z9L D   5      13.294 120.091 134.1130  0.00  0.00     0.000 C
ATOM     96   S  Z9L D   5      11.362 120.532 134.3190  0.00  0.00     0.000 S
ATOM     97   O  Z9L D   5      12.661 121.326 133.9140  0.00  0.00     0.000 O
ATOM     98   O  Z9L D   5      11.450 120.288 135.7360  0.00  0.00     0.000 OA
ATOM     99   O  Z9L D   5      10.955 119.509 133.4150  0.00  0.00     0.000 OA
ATOM    100   O  Z9L D   5      10.770 121.830 134.1150  0.00  0.00     0.000 O
ENDBRANCH 81 95
ENDBRANCH 76 80
ENDBRANCH 60 76
ENDBRANCH 59 63
ENDBRANCH 37 59
ENDBRANCH 36 40
ENDBRANCH 23 36
ENDBRANCH 22 26
ENDBRANCH 1 22
TORSDOF 19
ENDMDL
MODEL 72
REMARK VINA RESULT:      -0.4     87.893     93.685
ROOT
ATOM      1  C1  Z9H D   1      77.652  79.934  53.1010  0.00  0.00     0.000 C
ATOM      2  C2  Z9H D   1      77.433  81.413  53.5000  0.00  0.00     0.000 C
ATOM      3  C3  Z9H D   1      76.945  81.178  54.9630  0.00  0.00     0.000 C
ATOM      4  C4  Z9H D   1      75.783  80.114  55.1290  0.00  0.00     0.000 C
ATOM      5  C5  Z9H D   1      75.809  78.691  54.4430  0.00  0.00     0.000 C
ATOM      6  O5  Z9H D   1      76.577  78.965  53.2430  0.00  0.00     0.000 O
ATOM      7   O  Z9H D   1      76.591  82.406  55.6030  0.00  0.00     0.000 O
ATOM      8   C  Z9H D   1      77.599  82.967  56.4600  0.00  0.00     0.000 C
ATOM      9   O  Z9H D   1      75.650  79.901  56.5390  0.00  0.00     0.000 O
ATOM     10   C  Z9H D   1      74.586  80.617  57.1740  0.00  0.00     0.000 C
ENDROOT
BRANCH 2 11
ATOM     11   O  Z9H D   1      78.750  81.880  53.6240  0.00  0.00     0.000 O
ATOM     12   O  Z9H D   1      79.537  83.150  52.4730  0.00  0.00     0.000 OA
ATOM     13   S  Z9H D   1      78.187  82.703  52.3880  0.00  0.00     0.000 S
ATOM     14   O  Z9H D   1      77.229  83.653  52.8760  0.00  0.00     0.000 OA
ATOM     15   O  Z9H D   1      78.007  81.863  51.2250  0.00  0.00     0.000 O
ENDBRANCH 2 11
BRANCH 5 16
ATOM     16   C  Z9H D   1      74.330  77.911  54.3710  0.00  0.00     0.000 C
ATOM     17   S  Z9H D   1      73.424  76.121  54.4920  0.00  0.00     0.000 S
ATOM     18   O  Z9H D   1      74.615  76.875  55.2790  0.00  0.00     0.000 O
ATOM     19   O  Z9H D   1      73.727  75.769  53.1350  0.00  0.00     0.000 O
ATOM     20   O  Z9H D   1      72.164  76.635  54.9010  0.00  0.00     0.000 OA
ATOM     21   O  Z9H D   1      73.792  75.083  55.4100  0.00  0.00     0.000 OA
ENDBRANCH 5 16
BRANCH 1 22
ATOM     22  O4  GU1 D   2      78.729  79.248  53.8370  0.00  0.00     0.000 O
BRANCH 22 26
ATOM     23  C1  GU1 D   2      81.733  76.440  53.5740  0.00  0.00     0.000 C
ATOM     24  C2  GU1 D   2      81.514  77.263  52.3130  0.00  0.00     0.000 C
ATOM     25  C3  GU1 D   2      80.690  78.473  52.6460  0.00  0.00     0.000 C
ATOM     26  C4  GU1 D   2      79.408  78.078  53.3630  0.00  0.00     0.000 C
ATOM     27  C5  GU1 D   2      79.731  77.169  54.5530  0.00  0.00     0.000 C
ATOM     28  O5  GU1 D   2      80.484  76.038  54.1250  0.00  0.00     0.000 O
ATOM     29   O  GU1 D   2      82.741  77.703  51.7450  0.00  0.00     0.000 O
ATOM     30   C  GU1 D   2      83.216  76.876  50.6910  0.00  0.00     0.000 C
ATOM     31   C  GU1 D   2      81.116  80.300  51.1370  0.00  0.00     0.000 C
ATOM     32   O  GU1 D   2      80.346  79.135  51.4240  0.00  0.00     0.000 O
BRANCH 27 33
ATOM     33   C  GU1 D   2      78.470  76.663  55.2120  0.00  0.00     0.000 C
ATOM     34   O  GU1 D   2      78.179  77.094  56.3090  0.00  0.00     0.000 OA
ATOM     35   O  GU1 D   2      77.762  75.843  54.6500  0.00  0.00     0.000 O
ENDBRANCH 27 33
BRANCH 23 36
ATOM     36  O4  GU6 D   3      82.280  75.110  53.4810  0.00  0.00     0.000 O
BRANCH 36 40
ATOM     37  C1  GU6 D   3      82.735  71.056  53.2500  0.00  0.00     0.000 C
ATOM     38  C2  GU6 D   3      83.949  71.784  53.8160  0.00  0.00     0.000 C
ATOM     39  C3  GU6 D   3      83.586  73.216  54.1120  0.00  0.00     0.000 C
ATOM     40  C4  GU6 D   3      82.291  73.705  53.6280  0.00  0.00     0.000 C
ATOM     41  C5  GU6 D   3      81.994  73.091  52.2190  0.00  0.00     0.000 C
ATOM     42  O5  GU6 D   3      82.332  71.709  52.0570  0.00  0.00     0.000 O
BRANCH 38 43
ATOM     43   O  GU6 D   3      84.406  71.148  54.9940  0.00  0.00     0.000 O
ATOM     44   S  GU6 D   3      85.872  70.737  54.9590  0.00  0.00     0.000 S
ATOM     45   O  GU6 D   3      85.983  69.459  54.2340  0.00  0.00     0.000 OA
ATOM     46   O  GU6 D   3      86.634  71.775  54.2410  0.00  0.00     0.000 O
ATOM     47   O  GU6 D   3      86.359  70.615  56.3290  0.00  0.00     0.000 OA
ENDBRANCH 38 43
BRANCH 39 48
ATOM     48   O  GU6 D   3      84.353  73.987  55.0180  0.00  0.00     0.000 O
ATOM     49   S  GU6 D   3      84.108  74.295  56.4940  0.00  0.00     0.000 S
ATOM     50   O  GU6 D   3      83.954  73.048  57.2530  0.00  0.00     0.000 OA
ATOM     51   O  GU6 D   3      85.329  75.011  56.8910  0.00  0.00     0.000 OA
ATOM     52   O  GU6 D   3      82.884  75.117  56.6170  0.00  0.00     0.000 O
ENDBRANCH 39 48
BRANCH 41 53
ATOM     53   C  GU6 D   3      81.385  73.748  51.0090  0.00  0.00     0.000 C
ATOM     54   O  GU6 D   3      80.107  73.982  51.5420  0.00  0.00     0.000 O
ATOM     55   S  GU6 D   3      78.991  74.559  50.6610  0.00  0.00     0.000 S
ATOM     56   O  GU6 D   3      78.684  73.535  49.6350  0.00  0.00     0.000 O
ATOM     57   O  GU6 D   3      77.816  74.819  51.5050  0.00  0.00     0.000 OA
ATOM     58   O  GU6 D   3      79.518  75.794  50.0380  0.00  0.00     0.000 OA
ENDBRANCH 41 53
BRANCH 37 59
ATOM     59  O4  Z9K D   4      81.538  70.741  53.9920  0.00  0.00     0.000 O
BRANCH 59 63
ATOM     60  C1  Z9K D   4      79.221  68.730  56.4490  0.00  0.00     0.000 C
ATOM     61  C2  Z9K D   4      80.391  67.727  56.2500  0.00  0.00     0.000 C
ATOM     62  C3  Z9K D   4      81.408  68.614  55.4080  0.00  0.00     0.000 C
ATOM     63  C4  Z9K D   4      80.864  69.465  54.1980  0.00  0.00     0.000 C
ATOM     64  C5  Z9K D   4      79.388  69.881  54.2750  0.00  0.00     0.000 C
ATOM     65  O5  Z9K D   4      79.170  70.035  55.7020  0.00  0.00     0.000 O
ATOM     66   O  Z9K D   4      82.506  67.859  54.8650  0.00  0.00     0.000 O
ATOM     67   C  Z9K D   4      83.599  67.693  55.7530  0.00  0.00     0.000 C
BRANCH 61 68
ATOM     68   O  Z9K D   4      80.983  67.533  57.5040  0.00  0.00     0.000 O
ATOM     69   O  Z9K D   4      81.075  65.398  56.0960  0.00  0.00     0.000 OA
ATOM     70   S  Z9K D   4      80.403  66.056  57.1750  0.00  0.00     0.000 S
ATOM     71   O  Z9K D   4      78.992  66.047  57.4120  0.00  0.00     0.000 OA
ATOM     72   O  Z9K D   4      81.093  65.848  58.4070  0.00  0.00     0.000 OA
ENDBRANCH 61 68
BRANCH 64 73
ATOM     73   C  Z9K D   4      79.107  71.083  53.3480  0.00  0.00     0.000 C
ATOM     74   O  Z9K D   4      79.077  70.948  52.0900  0.00  0.00     0.000 O
ATOM     75   O  Z9K D   4      78.893  72.233  53.8030  0.00  0.00     0.000 OA
ENDBRANCH 64 73
BRANCH 60 76
ATOM     76  O4  Z9L D   5      77.807  68.487  56.3480  0.00  0.00     0.000 O
BRANCH 76 80
ATOM     77  C1  Z9L D   5      74.236  69.409  57.8880  0.00  0.00     0.000 C
ATOM     78  C2  Z9L D   5      74.250  69.949  56.3780  0.00  0.00     0.000 C
ATOM     79  C3  Z9L D   5      75.536  69.175  55.5970  0.00  0.00     0.000 C
ATOM     80  C4  Z9L D   5      76.703  69.252  56.7580  0.00  0.00     0.000 C
ATOM     81  C5  Z9L D   5      76.642  68.929  58.3370  0.00  0.00     0.000 C
ATOM     82  O5  Z9L D   5      75.398  69.466  58.8110  0.00  0.00     0.000 O
ATOM     83   C  Z9L D   5      73.621  67.448  59.1810  0.00  0.00     0.000 C
ATOM     84   C  Z9L D   5      73.621  67.448  59.1810  0.00  0.00     0.000 C
BRANCH 78 85
ATOM     85   O  Z9L D   5      73.055  69.572  55.7730  0.00  0.00     0.000 O
ATOM     86   O  Z9L D   5      71.652  70.782  55.2460  0.00  0.00     0.000 OA
ATOM     87   S  Z9L D   5      72.932  71.174  55.7520  0.00  0.00     0.000 S
ATOM     88   O  Z9L D   5      73.601  71.795  54.6350  0.00  0.00     0.000 OA
ATOM     89   O  Z9L D   5      72.664  71.805  56.9980  0.00  0.00     0.000 OA
ENDBRANCH 78 85
BRANCH 79 90
ATOM     90   O  Z9L D   5      76.065  69.969  54.5830  0.00  0.00     0.000 O
ATOM     91   S  Z9L D   5      75.683  68.675  53.7370  0.00  0.00     0.000 S
ATOM     92   O  Z9L D   5      74.349  68.136  53.7150  0.00  0.00     0.000 OA
ATOM     93   O  Z9L D   5      76.834  67.812  53.6390  0.00  0.00     0.000 O
ATOM     94   O  Z9L D   5      75.774  69.622  52.6730  0.00  0.00     0.000 OA
ENDBRANCH 79 90
BRANCH 81 95
ATOM     95   C  Z9L D   5      78.030  69.214  59.2340  0.00  0.00     0.000 C
ATOM     96   S  Z9L D   5      78.982  70.536  60.3800  0.00  0.00     0.000 S
ATOM     97   O  Z9L D   5      78.063  70.610  59.1040  0.00  0.00     0.000 O
ATOM     98   O  Z9L D   5      80.251  70.008  59.9470  0.00  0.00     0.000 OA
ATOM     99   O  Z9L D   5      78.353  70.071  61.5700  0.00  0.00     0.000 OA
ATOM    100   O  Z9L D   5      78.993  71.965  60.1850  0.00  0.00     0.000 O
ENDBRANCH 81 95
ENDBRANCH 76 80
ENDBRANCH 60 76
ENDBRANCH 59 63
ENDBRANCH 37 59
ENDBRANCH 36 40
ENDBRANCH 23 36
ENDBRANCH 22 26
ENDBRANCH 1 22
TORSDOF 19
ENDMDL
MODEL 73
REMARK VINA RESULT:      -0.4     92.679     97.939
ROOT
ATOM      1  C1  Z9H D   1      78.235  37.041  79.3760  0.00  0.00     0.000 C
ATOM      2  C2  Z9H D   1      78.399  38.569  79.5530  0.00  0.00     0.000 C
ATOM      3  C3  Z9H D   1      79.569  38.549  80.5840  0.00  0.00     0.000 C
ATOM      4  C4  Z9H D   1      79.352  37.607  81.8400  0.00  0.00     0.000 C
ATOM      5  C5  Z9H D   1      78.845  36.115  81.7230  0.00  0.00     0.000 C
ATOM      6  O5  Z9H D   1      78.022  36.183  80.5310  0.00  0.00     0.000 O
ATOM      7   O  Z9H D   1      79.921  39.868  81.0060  0.00  0.00     0.000 O
ATOM      8   C  Z9H D   1      81.055  40.446  80.3400  0.00  0.00     0.000 C
ATOM      9   O  Z9H D   1      80.610  37.574  82.5220  0.00  0.00     0.000 O
ATOM     10   C  Z9H D   1      80.721  38.442  83.6540  0.00  0.00     0.000 C
ENDROOT
BRANCH 2 11
ATOM     11   O  Z9H D   1      78.989  38.943  78.3360  0.00  0.00     0.000 O
ATOM     12   O  Z9H D   1      78.137  39.999  77.0250  0.00  0.00     0.000 OA
ATOM     13   S  Z9H D   1      77.568  39.652  78.2840  0.00  0.00     0.000 S
ATOM     14   O  Z9H D   1      77.565  40.727  79.2350  0.00  0.00     0.000 OA
ATOM     15   O  Z9H D   1      76.500  38.695  78.1080  0.00  0.00     0.000 O
ENDBRANCH 2 11
BRANCH 5 16
ATOM     16   C  Z9H D   1      78.264  35.451  83.1450  0.00  0.00     0.000 C
ATOM     17   S  Z9H D   1      78.160  33.764  84.2330  0.00  0.00     0.000 S
ATOM     18   O  Z9H D   1      79.288  34.507  83.3490  0.00  0.00     0.000 O
ATOM     19   O  Z9H D   1      77.058  33.234  83.4820  0.00  0.00     0.000 O
ATOM     20   O  Z9H D   1      78.007  34.419  85.4850  0.00  0.00     0.000 OA
ATOM     21   O  Z9H D   1      79.225  32.813  84.3650  0.00  0.00     0.000 OA
ENDBRANCH 5 16
BRANCH 1 22
ATOM     22  O4  GU1 D   2      79.384  36.364  78.7480  0.00  0.00     0.000 O
BRANCH 22 26
ATOM     23  C1  GU1 D   2      80.532  33.310  76.2340  0.00  0.00     0.000 C
ATOM     24  C2  GU1 D   2      79.218  33.981  75.8660  0.00  0.00     0.000 C
ATOM     25  C3  GU1 D   2      79.105  35.287  76.5970  0.00  0.00     0.000 C
ATOM     26  C4  GU1 D   2      79.308  35.093  78.0930  0.00  0.00     0.000 C
ATOM     27  C5  GU1 D   2      80.605  34.318  78.3490  0.00  0.00     0.000 C
ATOM     28  O5  GU1 D   2      80.597  33.083  77.6370  0.00  0.00     0.000 O
ATOM     29   O  GU1 D   2      79.127  34.243  74.4710  0.00  0.00     0.000 O
ATOM     30   C  GU1 D   2      78.411  33.254  73.7450  0.00  0.00     0.000 C
ATOM     31   C  GU1 D   2      77.723  36.867  75.4190  0.00  0.00     0.000 C
ATOM     32   O  GU1 D   2      77.793  35.815  76.3790  0.00  0.00     0.000 O
BRANCH 27 33
ATOM     33   C  GU1 D   2      80.773  34.004  79.8170  0.00  0.00     0.000 C
ATOM     34   O  GU1 D   2      80.039  33.178  80.3190  0.00  0.00     0.000 OA
ATOM     35   O  GU1 D   2      81.630  34.569  80.4780  0.00  0.00     0.000 O
ENDBRANCH 27 33
BRANCH 23 36
ATOM     36  O4  GU6 D   3      80.771  31.938  75.8600  0.00  0.00     0.000 O
BRANCH 36 40
ATOM     37  C1  GU6 D   3      81.094  27.865  75.8550  0.00  0.00     0.000 C
ATOM     38  C2  GU6 D   3      82.019  28.560  74.8630  0.00  0.00     0.000 C
ATOM     39  C3  GU6 D   3      82.024  30.043  75.1320  0.00  0.00     0.000 C
ATOM     40  C4  GU6 D   3      81.034  30.567  76.0790  0.00  0.00     0.000 C
ATOM     41  C5  GU6 D   3      79.681  29.803  75.8980  0.00  0.00     0.000 C
ATOM     42  O5  GU6 D   3      79.785  28.389  75.6960  0.00  0.00     0.000 O
BRANCH 38 43
ATOM     43   O  GU6 D   3      83.333  28.047  74.9650  0.00  0.00     0.000 O
ATOM     44   S  GU6 D   3      83.907  27.522  73.6550  0.00  0.00     0.000 S
ATOM     45   O  GU6 D   3      83.398  26.158  73.4350  0.00  0.00     0.000 OA
ATOM     46   O  GU6 D   3      83.453  28.397  72.5590  0.00  0.00     0.000 O
ATOM     47   O  GU6 D   3      85.364  27.540  73.7390  0.00  0.00     0.000 OA
ENDBRANCH 38 43
BRANCH 39 48
ATOM     48   O  GU6 D   3      83.084  30.860  74.6730  0.00  0.00     0.000 O
ATOM     49   S  GU6 D   3      84.317  31.374  75.4140  0.00  0.00     0.000 S
ATOM     50   O  GU6 D   3      85.064  30.251  75.9920  0.00  0.00     0.000 OA
ATOM     51   O  GU6 D   3      85.090  32.036  74.3540  0.00  0.00     0.000 OA
ATOM     52   O  GU6 D   3      83.883  32.299  76.4850  0.00  0.00     0.000 O
ENDBRANCH 39 48
BRANCH 41 53
ATOM     53   C  GU6 D   3      78.277  30.344  75.9210  0.00  0.00     0.000 C
ATOM     54   O  GU6 D   3      78.248  30.742  77.2670  0.00  0.00     0.000 O
ATOM     55   S  GU6 D   3      76.956  31.286  77.8900  0.00  0.00     0.000 S
ATOM     56   O  GU6 D   3      75.986  30.167  77.9090  0.00  0.00     0.000 O
ATOM     57   O  GU6 D   3      77.250  31.743  79.2560  0.00  0.00     0.000 OA
ATOM     58   O  GU6 D   3      76.480  32.388  77.0230  0.00  0.00     0.000 OA
ENDBRANCH 41 53
BRANCH 37 59
ATOM     59  O4  Z9K D   4      81.339  27.744  77.2720  0.00  0.00     0.000 O
BRANCH 59 63
ATOM     60  C1  Z9K D   4      82.886  26.250  80.5620  0.00  0.00     0.000 C
ATOM     61  C2  Z9K D   4      83.231  25.137  79.5340  0.00  0.00     0.000 C
ATOM     62  C3  Z9K D   4      82.770  25.826  78.1770  0.00  0.00     0.000 C
ATOM     63  C4  Z9K D   4      81.378  26.564  78.1250  0.00  0.00     0.000 C
ATOM     64  C5  Z9K D   4      80.852  27.107  79.4630  0.00  0.00     0.000 C
ATOM     65  O5  Z9K D   4      82.071  27.453  80.1720  0.00  0.00     0.000 O
ATOM     66   O  Z9K D   4      82.751  24.922  77.0580  0.00  0.00     0.000 O
ATOM     67   C  Z9K D   4      83.999  24.777  76.4000  0.00  0.00     0.000 C
BRANCH 61 68
ATOM     68   O  Z9K D   4      84.629  25.050  79.4760  0.00  0.00     0.000 O
ATOM     69   O  Z9K D   4      83.544  22.756  79.1460  0.00  0.00     0.000 OA
ATOM     70   S  Z9K D   4      84.228  23.601  80.0780  0.00  0.00     0.000 S
ATOM     71   O  Z9K D   4      83.910  23.745  81.4660  0.00  0.00     0.000 OA
ATOM     72   O  Z9K D   4      85.642  23.489  79.9240  0.00  0.00     0.000 OA
ENDBRANCH 61 68
BRANCH 64 73
ATOM     73   C  Z9K D   4      79.792  28.205  79.2310  0.00  0.00     0.000 C
ATOM     74   O  Z9K D   4      78.634  27.919  78.8090  0.00  0.00     0.000 O
ATOM     75   O  Z9K D   4      80.034  29.416  79.4560  0.00  0.00     0.000 OA
ENDBRANCH 64 73
BRANCH 60 76
ATOM     76  O4  Z9L D   5      82.276  26.114  81.8570  0.00  0.00     0.000 O
BRANCH 76 80
ATOM     77  C1  Z9L D   5      82.264  27.521  85.5970  0.00  0.00     0.000 C
ATOM     78  C2  Z9L D   5      80.826  27.849  84.9680  0.00  0.00     0.000 C
ATOM     79  C3  Z9L D   5      80.664  26.875  83.5940  0.00  0.00     0.000 C
ATOM     80  C4  Z9L D   5      82.165  27.014  82.9290  0.00  0.00     0.000 C
ATOM     81  C5  Z9L D   5      83.628  26.914  83.6000  0.00  0.00     0.000 C
ATOM     82  O5  Z9L D   5      83.546  27.609  84.8530  0.00  0.00     0.000 O
ATOM     83   C  Z9L D   5      83.413  25.810  86.8800  0.00  0.00     0.000 C
ATOM     84   C  Z9L D   5      83.413  25.810  86.8800  0.00  0.00     0.000 C
BRANCH 78 85
ATOM     85   O  Z9L D   5      79.855  27.491  85.8980  0.00  0.00     0.000 O
ATOM     86   O  Z9L D   5      78.736  28.728  86.8610  0.00  0.00     0.000 OA
ATOM     87   S  Z9L D   5      79.646  29.082  85.8150  0.00  0.00     0.000 S
ATOM     88   O  Z9L D   5      78.809  29.501  84.7180  0.00  0.00     0.000 OA
ATOM     89   O  Z9L D   5      80.640  29.886  86.4390  0.00  0.00     0.000 OA
ENDBRANCH 78 85
BRANCH 79 90
ATOM     90   O  Z9L D   5      79.852  27.479  82.6380  0.00  0.00     0.000 O
ATOM     91   S  Z9L D   5      79.050  26.120  82.8480  0.00  0.00     0.000 S
ATOM     92   O  Z9L D   5      78.581  25.694  84.1410  0.00  0.00     0.000 OA
ATOM     93   O  Z9L D   5      79.472  25.159  81.8590  0.00  0.00     0.000 O
ATOM     94   O  Z9L D   5      78.014  26.904  82.2590  0.00  0.00     0.000 OA
ENDBRANCH 79 90
BRANCH 81 95
ATOM     95   C  Z9L D   5      84.949  27.205  82.6090  0.00  0.00     0.000 C
ATOM     96   S  Z9L D   5      86.234  28.590  81.9760  0.00  0.00     0.000 S
ATOM     97   O  Z9L D   5      84.705  28.562  82.3510  0.00  0.00     0.000 O
ATOM     98   O  Z9L D   5      86.365  27.904  80.7170  0.00  0.00     0.000 OA
ATOM     99   O  Z9L D   5      87.139  28.349  83.0490  0.00  0.00     0.000 OA
ATOM    100   O  Z9L D   5      85.919  29.972  81.7120  0.00  0.00     0.000 O
ENDBRANCH 81 95
ENDBRANCH 76 80
ENDBRANCH 60 76
ENDBRANCH 59 63
ENDBRANCH 37 59
ENDBRANCH 36 40
ENDBRANCH 23 36
ENDBRANCH 22 26
ENDBRANCH 1 22
TORSDOF 19
ENDMDL
MODEL 74
REMARK VINA RESULT:      -0.4    134.979    141.755
ROOT
ATOM      1  C1  Z9H D   1      79.326  26.079 138.2800  0.00  0.00     0.000 C
ATOM      2  C2  Z9H D   1      78.187  26.840 139.0010  0.00  0.00     0.000 C
ATOM      3  C3  Z9H D   1      77.266  27.083 137.7670  0.00  0.00     0.000 C
ATOM      4  C4  Z9H D   1      77.980  27.709 136.4990  0.00  0.00     0.000 C
ATOM      5  C5  Z9H D   1      79.350  27.169 135.9240  0.00  0.00     0.000 C
ATOM      6  O5  Z9H D   1      79.987  26.666 137.1250  0.00  0.00     0.000 O
ATOM      7   O  Z9H D   1      76.111  27.849 138.1150  0.00  0.00     0.000 O
ATOM      8   C  Z9H D   1      74.914  27.087 138.3480  0.00  0.00     0.000 C
ATOM      9   O  Z9H D   1      77.021  27.641 135.4390  0.00  0.00     0.000 O
ATOM     10   C  Z9H D   1      76.305  28.852 135.1760  0.00  0.00     0.000 C
ENDROOT
BRANCH 2 11
ATOM     11   O  Z9H D   1      77.564  25.813 139.7270  0.00  0.00     0.000 O
ATOM     12   O  Z9H D   1      77.588  25.678 141.6080  0.00  0.00     0.000 OA
ATOM     13   S  Z9H D   1      78.176  26.739 140.8620  0.00  0.00     0.000 S
ATOM     14   O  Z9H D   1      77.424  27.961 140.9020  0.00  0.00     0.000 OA
ATOM     15   O  Z9H D   1      79.617  26.649 140.9060  0.00  0.00     0.000 O
ENDBRANCH 2 11
BRANCH 5 16
ATOM     16   C  Z9H D   1      80.146  28.216 134.8890  0.00  0.00     0.000 C
ATOM     17   S  Z9H D   1      81.248  28.324 133.2110  0.00  0.00     0.000 S
ATOM     18   O  Z9H D   1      79.954  27.492 133.6980  0.00  0.00     0.000 O
ATOM     19   O  Z9H D   1      82.471  27.981 133.8790  0.00  0.00     0.000 O
ATOM     20   O  Z9H D   1      80.881  29.661 132.8950  0.00  0.00     0.000 OA
ATOM     21   O  Z9H D   1      81.032  27.523 132.0420  0.00  0.00     0.000 OA
ENDBRANCH 5 16
BRANCH 1 22
ATOM     22  O4  GU1 D   2      78.942  24.767 137.7310  0.00  0.00     0.000 O
BRANCH 22 26
ATOM     23  C1  GU1 D   2      80.230  20.931 136.9570  0.00  0.00     0.000 C
ATOM     24  C2  GU1 D   2      80.798  21.553 138.2240  0.00  0.00     0.000 C
ATOM     25  C3  GU1 D   2      79.983  22.758 138.5950  0.00  0.00     0.000 C
ATOM     26  C4  GU1 D   2      79.872  23.722 137.4220  0.00  0.00     0.000 C
ATOM     27  C5  GU1 D   2      79.393  22.976 136.1730  0.00  0.00     0.000 C
ATOM     28  O5  GU1 D   2      80.251  21.874 135.8910  0.00  0.00     0.000 O
ATOM     29   O  GU1 D   2      80.774  20.645 139.3190  0.00  0.00     0.000 O
ATOM     30   C  GU1 D   2      82.004  19.967 139.5300  0.00  0.00     0.000 C
ATOM     31   C  GU1 D   2      80.050  23.203 140.9590  0.00  0.00     0.000 C
ATOM     32   O  GU1 D   2      80.634  23.428 139.6780  0.00  0.00     0.000 O
BRANCH 27 33
ATOM     33   C  GU1 D   2      79.389  23.881 134.9640  0.00  0.00     0.000 C
ATOM     34   O  GU1 D   2      80.455  24.249 134.5140  0.00  0.00     0.000 OA
ATOM     35   O  GU1 D   2      78.336  24.229 134.4530  0.00  0.00     0.000 O
ENDBRANCH 27 33
BRANCH 23 36
ATOM     36  O4  GU6 D   3      80.974  19.914 136.2570  0.00  0.00     0.000 O
BRANCH 36 40
ATOM     37  C1  GU6 D   3      83.389  17.902 133.6460  0.00  0.00     0.000 C
ATOM     38  C2  GU6 D   3      82.295  17.041 134.2660  0.00  0.00     0.000 C
ATOM     39  C3  GU6 D   3      81.308  17.921 134.9880  0.00  0.00     0.000 C
ATOM     40  C4  GU6 D   3      81.657  19.335 135.1640  0.00  0.00     0.000 C
ATOM     41  C5  GU6 D   3      83.189  19.463 135.4570  0.00  0.00     0.000 C
ATOM     42  O5  GU6 D   3      84.045  18.615 134.6830  0.00  0.00     0.000 O
BRANCH 38 43
ATOM     43   O  GU6 D   3      81.632  16.286 133.2710  0.00  0.00     0.000 O
ATOM     44   S  GU6 D   3      81.619  14.784 133.5240  0.00  0.00     0.000 S
ATOM     45   O  GU6 D   3      82.907  14.224 133.0800  0.00  0.00     0.000 OA
ATOM     46   O  GU6 D   3      81.456  14.552 134.9700  0.00  0.00     0.000 O
ATOM     47   O  GU6 D   3      80.502  14.194 132.7930  0.00  0.00     0.000 OA
ENDBRANCH 38 43
BRANCH 39 48
ATOM     48   O  GU6 D   3      80.001  17.462 135.2760  0.00  0.00     0.000 O
ATOM     49   S  GU6 D   3      78.691  17.701 134.5280  0.00  0.00     0.000 S
ATOM     50   O  GU6 D   3      78.826  17.289 133.1260  0.00  0.00     0.000 OA
ATOM     51   O  GU6 D   3      77.738  16.842 135.2440  0.00  0.00     0.000 OA
ATOM     52   O  GU6 D   3      78.351  19.139 134.6030  0.00  0.00     0.000 O
ENDBRANCH 39 48
BRANCH 41 53
ATOM     53   C  GU6 D   3      83.895  20.366 136.4320  0.00  0.00     0.000 C
ATOM     54   O  GU6 D   3      83.576  21.590 135.8230  0.00  0.00     0.000 O
ATOM     55   S  GU6 D   3      84.159  22.903 136.3620  0.00  0.00     0.000 S
ATOM     56   O  GU6 D   3      85.622  22.848 136.1300  0.00  0.00     0.000 O
ATOM     57   O  GU6 D   3      83.558  24.022 135.6220  0.00  0.00     0.000 OA
ATOM     58   O  GU6 D   3      83.852  22.959 137.8090  0.00  0.00     0.000 OA
ENDBRANCH 41 53
BRANCH 37 59
ATOM     59  O4  Z9K D   4      83.199  18.819 132.5480  0.00  0.00     0.000 O
BRANCH 59 63
ATOM     60  C1  Z9K D   4      82.806  19.951 128.8050  0.00  0.00     0.000 C
ATOM     61  C2  Z9K D   4      83.325  18.498 128.6270  0.00  0.00     0.000 C
ATOM     62  C3  Z9K D   4      83.307  17.985 130.1320  0.00  0.00     0.000 C
ATOM     63  C4  Z9K D   4      83.887  18.912 131.2670  0.00  0.00     0.000 C
ATOM     64  C5  Z9K D   4      83.856  20.422 130.9860  0.00  0.00     0.000 C
ATOM     65  O5  Z9K D   4      82.666  20.573 130.1680  0.00  0.00     0.000 O
ATOM     66   O  Z9K D   4      83.972  16.722 130.3110  0.00  0.00     0.000 O
ATOM     67   C  Z9K D   4      83.157  15.589 130.0580  0.00  0.00     0.000 C
BRANCH 61 68
ATOM     68   O  Z9K D   4      82.325  17.783 127.9550  0.00  0.00     0.000 O
ATOM     69   O  Z9K D   4      84.656  16.952 127.3010  0.00  0.00     0.000 OA
ATOM     70   S  Z9K D   4      83.540  17.747 126.8840  0.00  0.00     0.000 S
ATOM     71   O  Z9K D   4      83.616  19.013 126.2230  0.00  0.00     0.000 OA
ATOM     72   O  Z9K D   4      82.548  16.939 126.2510  0.00  0.00     0.000 OA
ENDBRANCH 61 68
BRANCH 64 73
ATOM     73   C  Z9K D   4      83.961  21.227 132.2980  0.00  0.00     0.000 C
ATOM     74   O  Z9K D   4      85.042  21.271 132.9560  0.00  0.00     0.000 O
ATOM     75   O  Z9K D   4      82.987  21.871 132.7590  0.00  0.00     0.000 OA
ENDBRANCH 64 73
BRANCH 60 76
ATOM     76  O4  Z9L D   5      83.283  21.155 128.1790  0.00  0.00     0.000 O
BRANCH 76 80
ATOM     77  C1  Z9L D   5      82.187  24.709 126.7170  0.00  0.00     0.000 C
ATOM     78  C2  Z9L D   5      83.130  24.993 127.9830  0.00  0.00     0.000 C
ATOM     79  C3  Z9L D   5      83.950  23.549 128.3100  0.00  0.00     0.000 C
ATOM     80  C4  Z9L D   5      82.739  22.448 128.1200  0.00  0.00     0.000 C
ATOM     81  C5  Z9L D   5      81.630  22.291 126.9600  0.00  0.00     0.000 C
ATOM     82  O5  Z9L D   5      81.182  23.618 126.6460  0.00  0.00     0.000 O
ATOM     83   C  Z9L D   5      82.302  24.424 124.3090  0.00  0.00     0.000 C
ATOM     84   C  Z9L D   5      82.302  24.424 124.3090  0.00  0.00     0.000 C
BRANCH 78 85
ATOM     85   O  Z9L D   5      84.053  25.970 127.6240  0.00  0.00     0.000 O
ATOM     86   O  Z9L D   5      84.086  27.769 128.3130  0.00  0.00     0.000 OA
ATOM     87   S  Z9L D   5      83.219  26.726 128.7710  0.00  0.00     0.000 S
ATOM     88   O  Z9L D   5      83.668  26.427 130.1080  0.00  0.00     0.000 OA
ATOM     89   O  Z9L D   5      81.907  27.150 128.4240  0.00  0.00     0.000 OA
ENDBRANCH 78 85
BRANCH 79 90
ATOM     90   O  Z9L D   5      84.253  23.435 129.6640  0.00  0.00     0.000 O
ATOM     91   S  Z9L D   5      85.719  23.322 129.0520  0.00  0.00     0.000 S
ATOM     92   O  Z9L D   5      86.274  24.334 128.1920  0.00  0.00     0.000 OA
ATOM     93   O  Z9L D   5      86.057  21.932 128.8750  0.00  0.00     0.000 O
ATOM     94   O  Z9L D   5      86.061  23.673 130.3920  0.00  0.00     0.000 OA
ENDBRANCH 79 90
BRANCH 81 95
ATOM     95   C  Z9L D   5      80.481  21.084 127.1540  0.00  0.00     0.000 C
ATOM     96   S  Z9L D   5      78.641  20.680 127.7990  0.00  0.00     0.000 S
ATOM     97   O  Z9L D   5      79.810  21.629 128.2580  0.00  0.00     0.000 O
ATOM     98   O  Z9L D   5      79.044  19.337 128.1280  0.00  0.00     0.000 OA
ATOM     99   O  Z9L D   5      78.050  20.989 126.5410  0.00  0.00     0.000 OA
ATOM    100   O  Z9L D   5      78.008  21.262 128.9570  0.00  0.00     0.000 O
ENDBRANCH 81 95
ENDBRANCH 76 80
ENDBRANCH 60 76
ENDBRANCH 59 63
ENDBRANCH 37 59
ENDBRANCH 36 40
ENDBRANCH 23 36
ENDBRANCH 22 26
ENDBRANCH 1 22
TORSDOF 19
ENDMDL
MODEL 75
REMARK VINA RESULT:      -0.4    117.985    124.468
ROOT
ATOM      1  C1  Z9H D   1      70.713 132.106  43.1470  0.00  0.00     0.000 C
ATOM      2  C2  Z9H D   1      69.689 132.781  42.2030  0.00  0.00     0.000 C
ATOM      3  C3  Z9H D   1      68.754 131.554  41.9760  0.00  0.00     0.000 C
ATOM      4  C4  Z9H D   1      69.484 130.213  41.5510  0.00  0.00     0.000 C
ATOM      5  C5  Z9H D   1      70.766 129.656  42.2890  0.00  0.00     0.000 C
ATOM      6  O5  Z9H D   1      71.390 130.883  42.7450  0.00  0.00     0.000 O
ATOM      7   O  Z9H D   1      67.700 131.858  41.0600  0.00  0.00     0.000 O
ATOM      8   C  Z9H D   1      66.439 132.195  41.6610  0.00  0.00     0.000 C
ATOM      9   O  Z9H D   1      68.484 129.191  41.6120  0.00  0.00     0.000 O
ATOM     10   C  Z9H D   1      67.891 128.832  40.3600  0.00  0.00     0.000 C
ENDROOT
BRANCH 2 11
ATOM     11   O  Z9H D   1      68.987 133.618  43.0850  0.00  0.00     0.000 O
ATOM     12   O  Z9H D   1      69.058 135.502  43.0400  0.00  0.00     0.000 OA
ATOM     13   S  Z9H D   1      69.727 134.643  42.1230  0.00  0.00     0.000 S
ATOM     14   O  Z9H D   1      69.106 134.578  40.8310  0.00  0.00     0.000 OA
ATOM     15   O  Z9H D   1      71.152 134.664  42.3600  0.00  0.00     0.000 O
ENDBRANCH 2 11
BRANCH 5 16
ATOM     16   C  Z9H D   1      71.630 128.505  41.4360  0.00  0.00     0.000 C
ATOM     17   S  Z9H D   1      72.707 126.817  41.6080  0.00  0.00     0.000 S
ATOM     18   O  Z9H D   1      71.355 127.403  42.2670  0.00  0.00     0.000 O
ATOM     19   O  Z9H D   1      73.908 127.508  41.9810  0.00  0.00     0.000 O
ATOM     20   O  Z9H D   1      72.450 126.357  40.2880  0.00  0.00     0.000 OA
ATOM     21   O  Z9H D   1      72.403 125.746  42.5110  0.00  0.00     0.000 OA
ENDBRANCH 5 16
BRANCH 1 22
ATOM     22  O4  GU1 D   2      70.172 131.696  44.4550  0.00  0.00     0.000 O
BRANCH 22 26
ATOM     23  C1  GU1 D   2      71.014 131.291  48.4670  0.00  0.00     0.000 C
ATOM     24  C2  GU1 D   2      71.693 132.469  47.7870  0.00  0.00     0.000 C
ATOM     25  C3  GU1 D   2      71.026 132.735  46.4690  0.00  0.00     0.000 C
ATOM     26  C4  GU1 D   2      70.973 131.472  45.6210  0.00  0.00     0.000 C
ATOM     27  C5  GU1 D   2      70.369 130.322  46.4320  0.00  0.00     0.000 C
ATOM     28  O5  GU1 D   2      71.093 130.132  47.6450  0.00  0.00     0.000 O
ATOM     29   O  GU1 D   2      71.615 133.653  48.5710  0.00  0.00     0.000 O
ATOM     30   C  GU1 D   2      72.774 133.900  49.3560  0.00  0.00     0.000 C
ATOM     31   C  GU1 D   2      71.233 135.037  45.7980  0.00  0.00     0.000 C
ATOM     32   O  GU1 D   2      71.787 133.724  45.7680  0.00  0.00     0.000 O
BRANCH 27 33
ATOM     33   C  GU1 D   2      70.414 129.025  45.6590  0.00  0.00     0.000 C
ATOM     34   O  GU1 D   2      71.490 128.488  45.4940  0.00  0.00     0.000 OA
ATOM     35   O  GU1 D   2      69.389 128.531  45.2150  0.00  0.00     0.000 O
ENDBRANCH 27 33
BRANCH 23 36
ATOM     36  O4  GU6 D   3      71.617 130.681  49.6260  0.00  0.00     0.000 O
BRANCH 36 40
ATOM     37  C1  GU6 D   3      73.724 128.239  52.1340  0.00  0.00     0.000 C
ATOM     38  C2  GU6 D   3      72.564 128.962  52.8060  0.00  0.00     0.000 C
ATOM     39  C3  GU6 D   3      71.698 129.611  51.7570  0.00  0.00     0.000 C
ATOM     40  C4  GU6 D   3      72.202 129.638  50.3790  0.00  0.00     0.000 C
ATOM     41  C5  GU6 D   3      73.746 129.888  50.3920  0.00  0.00     0.000 C
ATOM     42  O5  GU6 D   3      74.484 129.187  51.4000  0.00  0.00     0.000 O
BRANCH 38 43
ATOM     43   O  GU6 D   3      71.794 128.060  53.5760  0.00  0.00     0.000 O
ATOM     44   S  GU6 D   3      71.632 128.459  55.0370  0.00  0.00     0.000 S
ATOM     45   O  GU6 D   3      72.840 128.046  55.7720  0.00  0.00     0.000 OA
ATOM     46   O  GU6 D   3      71.491 129.924  55.1120  0.00  0.00     0.000 O
ATOM     47   O  GU6 D   3      70.437 127.813  55.5710  0.00  0.00     0.000 OA
ENDBRANCH 38 43
BRANCH 39 48
ATOM     48   O  GU6 D   3      70.359 129.968  52.0400  0.00  0.00     0.000 O
ATOM     49   S  GU6 D   3      69.060 129.225  51.7310  0.00  0.00     0.000 S
ATOM     50   O  GU6 D   3      69.108 127.868  52.2870  0.00  0.00     0.000 OA
ATOM     51   O  GU6 D   3      68.041 130.040  52.4070  0.00  0.00     0.000 OA
ATOM     52   O  GU6 D   3      68.879 129.165  50.2630  0.00  0.00     0.000 O
ENDBRANCH 39 48
BRANCH 41 53
ATOM     53   C  GU6 D   3      74.573 130.755  49.4810  0.00  0.00     0.000 C
ATOM     54   O  GU6 D   3      74.365 130.036  48.2930  0.00  0.00     0.000 O
ATOM     55   S  GU6 D   3      75.099 130.432  47.0050  0.00  0.00     0.000 S
ATOM     56   O  GU6 D   3      76.539 130.175  47.2380  0.00  0.00     0.000 O
ATOM     57   O  GU6 D   3      74.593 129.600  45.9040  0.00  0.00     0.000 OA
ATOM     58   O  GU6 D   3      74.845 131.873  46.7800  0.00  0.00     0.000 OA
ENDBRANCH 41 53
BRANCH 37 59
ATOM     59  O4  Z9K D   4      73.602 127.059  51.3130  0.00  0.00     0.000 O
BRANCH 59 63
ATOM     60  C1  Z9K D   4      73.226 123.231  50.5060  0.00  0.00     0.000 C
ATOM     61  C2  Z9K D   4      73.576 123.186  52.0190  0.00  0.00     0.000 C
ATOM     62  C3  Z9K D   4      73.545 124.735  52.3810  0.00  0.00     0.000 C
ATOM     63  C4  Z9K D   4      74.258 125.762  51.4210  0.00  0.00     0.000 C
ATOM     64  C5  Z9K D   4      74.386 125.335  49.9510  0.00  0.00     0.000 C
ATOM     65  O5  Z9K D   4      73.197 124.528  49.7450  0.00  0.00     0.000 O
ATOM     66   O  Z9K D   4      74.071 125.024  53.6880  0.00  0.00     0.000 O
ATOM     67   C  Z9K D   4      73.129 124.899  54.7410  0.00  0.00     0.000 C
BRANCH 61 68
ATOM     68   O  Z9K D   4      72.483 122.606  52.6770  0.00  0.00     0.000 O
ATOM     69   O  Z9K D   4      74.685 122.008  53.8350  0.00  0.00     0.000 OA
ATOM     70   S  Z9K D   4      73.657 121.527  52.9620  0.00  0.00     0.000 S
ATOM     71   O  Z9K D   4      73.860 120.738  51.7860  0.00  0.00     0.000 OA
ATOM     72   O  Z9K D   4      72.563 120.995  53.7080  0.00  0.00     0.000 OA
ENDBRANCH 61 68
BRANCH 64 73
ATOM     73   C  Z9K D   4      74.619 126.560  49.0420  0.00  0.00     0.000 C
ATOM     74   O  Z9K D   4      75.725 127.173  49.0380  0.00  0.00     0.000 O
ATOM     75   O  Z9K D   4      73.727 126.989  48.2700  0.00  0.00     0.000 OA
ENDBRANCH 64 73
BRANCH 60 76
ATOM     76  O4  Z9L D   5      73.815 122.481  49.4290  0.00  0.00     0.000 O
BRANCH 76 80
ATOM     77  C1  Z9L D   5      73.068 120.671  45.9450  0.00  0.00     0.000 C
ATOM     78  C2  Z9L D   5      74.063 121.890  45.6370  0.00  0.00     0.000 C
ATOM     79  C3  Z9L D   5      74.733 122.356  47.1190  0.00  0.00     0.000 C
ATOM     80  C4  Z9L D   5      73.409 122.295  48.0980  0.00  0.00     0.000 C
ATOM     81  C5  Z9L D   5      72.264 121.170  48.2530  0.00  0.00     0.000 C
ATOM     82  O5  Z9L D   5      71.952 120.725  46.9240  0.00  0.00     0.000 O
ATOM     83   C  Z9L D   5      73.098 118.305  46.4850  0.00  0.00     0.000 C
ATOM     84   C  Z9L D   5      73.098 118.305  46.4850  0.00  0.00     0.000 C
BRANCH 78 85
ATOM     85   O  Z9L D   5      75.076 121.421  44.8060  0.00  0.00     0.000 O
ATOM     86   O  Z9L D   5      75.315 121.923  42.9620  0.00  0.00     0.000 OA
ATOM     87   S  Z9L D   5      74.354 122.496  43.8540  0.00  0.00     0.000 S
ATOM     88   O  Z9L D   5      74.800 123.851  44.0640  0.00  0.00     0.000 OA
ATOM     89   O  Z9L D   5      73.086 122.125  43.3270  0.00  0.00     0.000 OA
ENDBRANCH 78 85
BRANCH 79 90
ATOM     90   O  Z9L D   5      75.053 123.711  47.1270  0.00  0.00     0.000 O
ATOM     91   S  Z9L D   5      76.484 123.097  47.4630  0.00  0.00     0.000 S
ATOM     92   O  Z9L D   5      77.126 122.130  46.6110  0.00  0.00     0.000 OA
ATOM     93   O  Z9L D   5      76.666 123.063  48.8920  0.00  0.00     0.000 O
ATOM     94   O  Z9L D   5      76.892 124.390  47.0170  0.00  0.00     0.000 OA
ENDBRANCH 79 90
BRANCH 81 95
ATOM     95   C  Z9L D   5      70.999 121.500  49.3030  0.00  0.00     0.000 C
ATOM     96   S  Z9L D   5      69.139 122.198  49.4400  0.00  0.00     0.000 S
ATOM     97   O  Z9L D   5      70.409 122.544  48.5760  0.00  0.00     0.000 O
ATOM     98   O  Z9L D   5      69.405 122.667  50.7750  0.00  0.00     0.000 OA
ATOM     99   O  Z9L D   5      68.561 120.918  49.2050  0.00  0.00     0.000 OA
ATOM    100   O  Z9L D   5      68.591 123.290  48.6730  0.00  0.00     0.000 O
ENDBRANCH 81 95
ENDBRANCH 76 80
ENDBRANCH 60 76
ENDBRANCH 59 63
ENDBRANCH 37 59
ENDBRANCH 36 40
ENDBRANCH 23 36
ENDBRANCH 22 26
ENDBRANCH 1 22
TORSDOF 19
ENDMDL
MODEL 76
REMARK VINA RESULT:      -0.4    124.110    130.648
ROOT
ATOM      1  C1  Z9H D   1     132.440  46.916  59.8580  0.00  0.00     0.000 C
ATOM      2  C2  Z9H D   1     132.738  46.000  58.6460  0.00  0.00     0.000 C
ATOM      3  C3  Z9H D   1     131.666  46.570  57.6680  0.00  0.00     0.000 C
ATOM      4  C4  Z9H D   1     130.199  46.679  58.2580  0.00  0.00     0.000 C
ATOM      5  C5  Z9H D   1     129.881  47.309  59.6720  0.00  0.00     0.000 C
ATOM      6  O5  Z9H D   1     131.094  47.001  60.4030  0.00  0.00     0.000 O
ATOM      7   O  Z9H D   1     131.652  45.857  56.4300  0.00  0.00     0.000 O
ATOM      8   C  Z9H D   1     132.375  46.478  55.3540  0.00  0.00     0.000 C
ATOM      9   O  Z9H D   1     129.444  47.414  57.2890  0.00  0.00     0.000 O
ATOM     10   C  Z9H D   1     128.636  46.627  56.4080  0.00  0.00     0.000 C
ENDROOT
BRANCH 2 11
ATOM     11   O  Z9H D   1     133.961  46.513  58.1870  0.00  0.00     0.000 O
ATOM     12   O  Z9H D   1     135.598  45.579  58.2630  0.00  0.00     0.000 OA
ATOM     13   S  Z9H D   1     134.343  45.053  58.6810  0.00  0.00     0.000 S
ATOM     14   O  Z9H D   1     133.777  44.104  57.7650  0.00  0.00     0.000 OA
ATOM     15   O  Z9H D   1     134.295  44.947  60.1210  0.00  0.00     0.000 O
ENDBRANCH 2 11
BRANCH 5 16
ATOM     16   C  Z9H D   1     128.372  46.933  60.2920  0.00  0.00     0.000 C
ATOM     17   S  Z9H D   1     126.822  47.648  61.3530  0.00  0.00     0.000 S
ATOM     18   O  Z9H D   1     127.804  48.217  60.2050  0.00  0.00     0.000 O
ATOM     19   O  Z9H D   1     127.453  47.404  62.6190  0.00  0.00     0.000 O
ATOM     20   O  Z9H D   1     125.855  46.776  60.7840  0.00  0.00     0.000 OA
ATOM     21   O  Z9H D   1     126.316  48.986  61.2550  0.00  0.00     0.000 OA
ENDBRANCH 5 16
BRANCH 1 22
ATOM     22  O4  GU1 D   2     132.732  48.344  59.6410  0.00  0.00     0.000 O
BRANCH 22 26
ATOM     23  C1  GU1 D   2     134.063  51.818  61.4100  0.00  0.00     0.000 C
ATOM     24  C2  GU1 D   2     134.731  50.547  61.9130  0.00  0.00     0.000 C
ATOM     25  C3  GU1 D   2     134.456  49.427  60.9530  0.00  0.00     0.000 C
ATOM     26  C4  GU1 D   2     132.962  49.286  60.6950  0.00  0.00     0.000 C
ATOM     27  C5  GU1 D   2     132.369  50.640  60.2970  0.00  0.00     0.000 C
ATOM     28  O5  GU1 D   2     132.659  51.623  61.2870  0.00  0.00     0.000 O
ATOM     29   O  GU1 D   2     136.141  50.698  62.0280  0.00  0.00     0.000 O
ATOM     30   C  GU1 D   2     136.580  51.020  63.3400  0.00  0.00     0.000 C
ATOM     31   C  GU1 D   2     136.180  47.748  61.0020  0.00  0.00     0.000 C
ATOM     32   O  GU1 D   2     134.938  48.209  61.5290  0.00  0.00     0.000 O
BRANCH 27 33
ATOM     33   C  GU1 D   2     130.868  50.558  60.1520  0.00  0.00     0.000 C
ATOM     34   O  GU1 D   2     130.390  50.626  59.0380  0.00  0.00     0.000 OA
ATOM     35   O  GU1 D   2     130.156  50.421  61.1350  0.00  0.00     0.000 O
ENDBRANCH 27 33
BRANCH 23 36
ATOM     36  O4  GU6 D   3     133.969  52.972  62.2690  0.00  0.00     0.000 O
BRANCH 36 40
ATOM     37  C1  GU6 D   3     132.676  55.814  64.9040  0.00  0.00     0.000 C
ATOM     38  C2  GU6 D   3     133.754  56.304  63.9450  0.00  0.00     0.000 C
ATOM     39  C3  GU6 D   3     133.962  55.284  62.8560  0.00  0.00     0.000 C
ATOM     40  C4  GU6 D   3     133.312  53.979  63.0120  0.00  0.00     0.000 C
ATOM     41  C5  GU6 D   3     133.359  53.548  64.5150  0.00  0.00     0.000 C
ATOM     42  O5  GU6 D   3     133.100  54.583  65.4700  0.00  0.00     0.000 O
BRANCH 38 43
ATOM     43   O  GU6 D   3     133.388  57.548  63.3790  0.00  0.00     0.000 O
ATOM     44   S  GU6 D   3     134.416  58.655  63.5740  0.00  0.00     0.000 S
ATOM     45   O  GU6 D   3     134.241  59.225  64.9210  0.00  0.00     0.000 OA
ATOM     46   O  GU6 D   3     135.764  58.070  63.4610  0.00  0.00     0.000 O
ATOM     47   O  GU6 D   3     134.220  59.665  62.5390  0.00  0.00     0.000 OA
ENDBRANCH 38 43
BRANCH 39 48
ATOM     48   O  GU6 D   3     134.563  55.646  61.6270  0.00  0.00     0.000 O
ATOM     49   S  GU6 D   3     133.918  55.997  60.2870  0.00  0.00     0.000 S
ATOM     50   O  GU6 D   3     132.957  57.092  60.4590  0.00  0.00     0.000 OA
ATOM     51   O  GU6 D   3     135.062  56.419  59.4680  0.00  0.00     0.000 OA
ATOM     52   O  GU6 D   3     133.231  54.799  59.7570  0.00  0.00     0.000 O
ENDBRANCH 39 48
BRANCH 41 53
ATOM     53   C  GU6 D   3     133.623  52.188  65.1030  0.00  0.00     0.000 C
ATOM     54   O  GU6 D   3     132.480  51.540  64.6090  0.00  0.00     0.000 O
ATOM     55   S  GU6 D   3     132.169  50.093  65.0120  0.00  0.00     0.000 S
ATOM     56   O  GU6 D   3     131.876  50.107  66.4640  0.00  0.00     0.000 O
ATOM     57   O  GU6 D   3     130.998  49.635  64.2500  0.00  0.00     0.000 OA
ATOM     58   O  GU6 D   3     133.376  49.287  64.7210  0.00  0.00     0.000 OA
ENDBRANCH 41 53
BRANCH 37 59
ATOM     59  O4  Z9K D   4     131.277  55.678  64.5790  0.00  0.00     0.000 O
BRANCH 59 63
ATOM     60  C1  Z9K D   4     127.566  56.835  64.0010  0.00  0.00     0.000 C
ATOM     61  C2  Z9K D   4     128.161  58.079  64.7150  0.00  0.00     0.000 C
ATOM     62  C3  Z9K D   4     129.700  57.682  64.7810  0.00  0.00     0.000 C
ATOM     63  C4  Z9K D   4     130.098  56.227  65.2370  0.00  0.00     0.000 C
ATOM     64  C5  Z9K D   4     129.047  55.133  64.9940  0.00  0.00     0.000 C
ATOM     65  O5  Z9K D   4     128.380  55.588  63.7880  0.00  0.00     0.000 O
ATOM     66   O  Z9K D   4     130.478  58.557  65.6170  0.00  0.00     0.000 O
ATOM     67   C  Z9K D   4     130.949  59.725  64.9640  0.00  0.00     0.000 C
BRANCH 61 68
ATOM     68   O  Z9K D   4     128.070  59.152  63.8180  0.00  0.00     0.000 O
ATOM     69   O  Z9K D   4     127.775  59.939  66.2350  0.00  0.00     0.000 OA
ATOM     70   S  Z9K D   4     127.090  59.632  65.0150  0.00  0.00     0.000 S
ATOM     71   O  Z9K D   4     125.846  58.934  64.9080  0.00  0.00     0.000 OA
ATOM     72   O  Z9K D   4     127.080  60.759  64.1390  0.00  0.00     0.000 OA
ENDBRANCH 61 68
BRANCH 64 73
ATOM     73   C  Z9K D   4     129.700  53.734  64.9980  0.00  0.00     0.000 C
ATOM     74   O  Z9K D   4     130.110  53.205  66.0720  0.00  0.00     0.000 O
ATOM     75   O  Z9K D   4     129.843  53.068  63.9440  0.00  0.00     0.000 OA
ENDBRANCH 64 73
BRANCH 60 76
ATOM     76  O4  Z9L D   5     126.350  56.127  64.3010  0.00  0.00     0.000 O
BRANCH 76 80
ATOM     77  C1  Z9L D   5     123.256  54.185  62.6800  0.00  0.00     0.000 C
ATOM     78  C2  Z9L D   5     124.063  53.123  63.5700  0.00  0.00     0.000 C
ATOM     79  C3  Z9L D   5     125.068  54.015  64.5990  0.00  0.00     0.000 C
ATOM     80  C4  Z9L D   5     125.628  55.172  63.5680  0.00  0.00     0.000 C
ATOM     81  C5  Z9L D   5     124.852  56.093  62.4950  0.00  0.00     0.000 C
ATOM     82  O5  Z9L D   5     123.892  55.242  61.8520  0.00  0.00     0.000 O
ATOM     83   C  Z9L D   5     121.417  55.762  62.8350  0.00  0.00     0.000 C
ATOM     84   C  Z9L D   5     121.417  55.762  62.8350  0.00  0.00     0.000 C
BRANCH 78 85
ATOM     85   O  Z9L D   5     123.143  52.412  64.3350  0.00  0.00     0.000 O
ATOM     86   O  Z9L D   5     122.707  50.552  64.0950  0.00  0.00     0.000 OA
ATOM     87   S  Z9L D   5     123.740  51.253  63.3960  0.00  0.00     0.000 S
ATOM     88   O  Z9L D   5     124.973  50.687  63.8850  0.00  0.00     0.000 OA
ATOM     89   O  Z9L D   5     123.329  51.266  62.0340  0.00  0.00     0.000 OA
ENDBRANCH 78 85
BRANCH 79 90
ATOM     90   O  Z9L D   5     126.224  53.308  64.9170  0.00  0.00     0.000 O
ATOM     91   S  Z9L D   5     125.657  53.566  66.3820  0.00  0.00     0.000 S
ATOM     92   O  Z9L D   5     124.336  53.157  66.7810  0.00  0.00     0.000 OA
ATOM     93   O  Z9L D   5     126.258  54.759  66.9240  0.00  0.00     0.000 O
ATOM     94   O  Z9L D   5     126.540  52.482  66.6690  0.00  0.00     0.000 OA
ENDBRANCH 79 90
BRANCH 81 95
ATOM     95   C  Z9L D   5     125.783  57.112  61.5420  0.00  0.00     0.000 C
ATOM     96   S  Z9L D   5     126.712  57.301  59.7900  0.00  0.00     0.000 S
ATOM     97   O  Z9L D   5     126.463  56.127  60.8100  0.00  0.00     0.000 O
ATOM     98   O  Z9L D   5     127.686  58.175  60.3930  0.00  0.00     0.000 OA
ATOM     99   O  Z9L D   5     125.552  57.818  59.1450  0.00  0.00     0.000 OA
ATOM    100   O  Z9L D   5     127.411  56.252  59.0910  0.00  0.00     0.000 O
ENDBRANCH 81 95
ENDBRANCH 76 80
ENDBRANCH 60 76
ENDBRANCH 59 63
ENDBRANCH 37 59
ENDBRANCH 36 40
ENDBRANCH 23 36
ENDBRANCH 22 26
ENDBRANCH 1 22
TORSDOF 19
ENDMDL
MODEL 77
REMARK VINA RESULT:      -0.4     82.961     89.883
ROOT
ATOM      1  C1  Z9H D   1      64.700  43.793  87.5630  0.00  0.00     0.000 C
ATOM      2  C2  Z9H D   1      65.847  43.962  88.5870  0.00  0.00     0.000 C
ATOM      3  C3  Z9H D   1      66.939  43.140  87.8350  0.00  0.00     0.000 C
ATOM      4  C4  Z9H D   1      66.491  41.699  87.3510  0.00  0.00     0.000 C
ATOM      5  C5  Z9H D   1      65.133  41.426  86.5890  0.00  0.00     0.000 C
ATOM      6  O5  Z9H D   1      64.284  42.467  87.1340  0.00  0.00     0.000 O
ATOM      7   O  Z9H D   1      68.149  43.057  88.5900  0.00  0.00     0.000 O
ATOM      8   C  Z9H D   1      69.174  43.993  88.2160  0.00  0.00     0.000 C
ATOM      9   O  Z9H D   1      67.549  41.223  86.5130  0.00  0.00     0.000 O
ATOM     10   C  Z9H D   1      68.473  40.325  87.1340  0.00  0.00     0.000 C
ENDROOT
BRANCH 2 11
ATOM     11   O  Z9H D   1      66.209  45.305  88.4020  0.00  0.00     0.000 O
ATOM     12   O  Z9H D   1      65.971  46.655  89.6980  0.00  0.00     0.000 OA
ATOM     13   S  Z9H D   1      65.653  45.280  89.8900  0.00  0.00     0.000 S
ATOM     14   O  Z9H D   1      66.595  44.575  90.7120  0.00  0.00     0.000 OA
ATOM     15   O  Z9H D   1      64.220  45.094  89.9210  0.00  0.00     0.000 O
ENDBRANCH 2 11
BRANCH 5 16
ATOM     16   C  Z9H D   1      64.643  39.826  86.5640  0.00  0.00     0.000 C
ATOM     17   S  Z9H D   1      63.757  38.410  85.4460  0.00  0.00     0.000 S
ATOM     18   O  Z9H D   1      64.830  39.589  85.1890  0.00  0.00     0.000 O
ATOM     19   O  Z9H D   1      62.431  38.860  85.7570  0.00  0.00     0.000 O
ATOM     20   O  Z9H D   1      64.382  37.313  86.0980  0.00  0.00     0.000 OA
ATOM     21   O  Z9H D   1      63.951  38.248  84.0350  0.00  0.00     0.000 OA
ENDBRANCH 5 16
BRANCH 1 22
ATOM     22  O4  GU1 D   2      64.936  44.435  86.2580  0.00  0.00     0.000 O
BRANCH 22 26
ATOM     23  C1  GU1 D   2      63.175  46.452  83.1270  0.00  0.00     0.000 C
ATOM     24  C2  GU1 D   2      62.585  46.755  84.4960  0.00  0.00     0.000 C
ATOM     25  C3  GU1 D   2      63.530  46.279  85.5610  0.00  0.00     0.000 C
ATOM     26  C4  GU1 D   2      63.896  44.818  85.3500  0.00  0.00     0.000 C
ATOM     27  C5  GU1 D   2      64.379  44.600  83.9130  0.00  0.00     0.000 C
ATOM     28  O5  GU1 D   2      63.399  45.054  82.9830  0.00  0.00     0.000 O
ATOM     29   O  GU1 D   2      62.367  48.148  84.6850  0.00  0.00     0.000 O
ATOM     30   C  GU1 D   2      61.035  48.564  84.4160  0.00  0.00     0.000 C
ATOM     31   C  GU1 D   2      63.298  47.534  87.6020  0.00  0.00     0.000 C
ATOM     32   O  GU1 D   2      62.882  46.410  86.8310  0.00  0.00     0.000 O
BRANCH 27 33
ATOM     33   C  GU1 D   2      64.635  43.138  83.6370  0.00  0.00     0.000 C
ATOM     34   O  GU1 D   2      63.685  42.385  83.5810  0.00  0.00     0.000 OA
ATOM     35   O  GU1 D   2      65.774  42.727  83.4720  0.00  0.00     0.000 O
ENDBRANCH 27 33
BRANCH 23 36
ATOM     36  O4  GU6 D   3      62.360  46.585  81.9450  0.00  0.00     0.000 O
BRANCH 36 40
ATOM     37  C1  GU6 D   3      59.932  45.856  78.7420  0.00  0.00     0.000 C
ATOM     38  C2  GU6 D   3      60.820  47.083  78.5780  0.00  0.00     0.000 C
ATOM     39  C3  GU6 D   3      61.855  47.107  79.6720  0.00  0.00     0.000 C
ATOM     40  C4  GU6 D   3      61.705  46.148  80.7720  0.00  0.00     0.000 C
ATOM     41  C5  GU6 D   3      60.189  45.986  81.1230  0.00  0.00     0.000 C
ATOM     42  O5  GU6 D   3      59.293  45.926  80.0070  0.00  0.00     0.000 O
BRANCH 38 43
ATOM     43   O  GU6 D   3      61.455  47.072  77.3140  0.00  0.00     0.000 O
ATOM     44   S  GU6 D   3      61.222  48.326  76.4810  0.00  0.00     0.000 S
ATOM     45   O  GU6 D   3      59.913  48.210  75.8160  0.00  0.00     0.000 OA
ATOM     46   O  GU6 D   3      61.213  49.493  77.3810  0.00  0.00     0.000 O
ATOM     47   O  GU6 D   3      62.303  48.453  75.5090  0.00  0.00     0.000 OA
ENDBRANCH 38 43
BRANCH 39 48
ATOM     48   O  GU6 D   3      63.045  47.859  79.5310  0.00  0.00     0.000 O
ATOM     49   S  GU6 D   3      64.442  47.412  79.1040  0.00  0.00     0.000 S
ATOM     50   O  GU6 D   3      64.382  46.739  77.8010  0.00  0.00     0.000 OA
ATOM     51   O  GU6 D   3      65.184  48.677  79.0150  0.00  0.00     0.000 OA
ATOM     52   O  GU6 D   3      64.984  46.488  80.1260  0.00  0.00     0.000 O
ENDBRANCH 39 48
BRANCH 41 53
ATOM     53   C  GU6 D   3      59.537  45.869  82.4740  0.00  0.00     0.000 C
ATOM     54   O  GU6 D   3      60.091  44.634  82.8470  0.00  0.00     0.000 O
ATOM     55   S  GU6 D   3      59.661  43.951  84.1520  0.00  0.00     0.000 S
ATOM     56   O  GU6 D   3      58.236  43.580  83.9910  0.00  0.00     0.000 O
ATOM     57   O  GU6 D   3      60.491  42.753  84.3490  0.00  0.00     0.000 OA
ATOM     58   O  GU6 D   3      59.835  44.937  85.2420  0.00  0.00     0.000 OA
ENDBRANCH 41 53
BRANCH 37 59
ATOM     59  O4  Z9K D   4      60.360  44.491  78.5510  0.00  0.00     0.000 O
BRANCH 59 63
ATOM     60  C1  Z9K D   4      61.287  41.227  76.5690  0.00  0.00     0.000 C
ATOM     61  C2  Z9K D   4      60.597  42.067  75.4590  0.00  0.00     0.000 C
ATOM     62  C3  Z9K D   4      60.391  43.452  76.2140  0.00  0.00     0.000 C
ATOM     63  C4  Z9K D   4      59.827  43.447  77.6860  0.00  0.00     0.000 C
ATOM     64  C5  Z9K D   4      60.090  42.175  78.5050  0.00  0.00     0.000 C
ATOM     65  O5  Z9K D   4      61.367  41.717  77.9890  0.00  0.00     0.000 O
ATOM     66   O  Z9K D   4      59.546  44.370  75.4970  0.00  0.00     0.000 O
ATOM     67   C  Z9K D   4      60.222  45.155  74.5290  0.00  0.00     0.000 C
BRANCH 61 68
ATOM     68   O  Z9K D   4      61.556  42.300  74.4640  0.00  0.00     0.000 O
ATOM     69   O  Z9K D   4      59.213  42.077  73.4590  0.00  0.00     0.000 OA
ATOM     70   S  Z9K D   4      60.461  41.408  73.6720  0.00  0.00     0.000 S
ATOM     71   O  Z9K D   4      60.620  40.035  74.0440  0.00  0.00     0.000 OA
ATOM     72   O  Z9K D   4      61.395  41.732  72.6430  0.00  0.00     0.000 OA
ENDBRANCH 61 68
BRANCH 64 73
ATOM     73   C  Z9K D   4      59.959  42.458  80.0170  0.00  0.00     0.000 C
ATOM     74   O  Z9K D   4      58.831  42.669  80.5490  0.00  0.00     0.000 O
ATOM     75   O  Z9K D   4      60.960  42.484  80.7740  0.00  0.00     0.000 OA
ENDBRANCH 64 73
BRANCH 60 76
ATOM     76  O4  Z9L D   5      61.044  39.858  76.9350  0.00  0.00     0.000 O
BRANCH 76 80
ATOM     77  C1  Z9L D   5      62.740  36.522  78.3370  0.00  0.00     0.000 C
ATOM     78  C2  Z9L D   5      61.674  37.003  79.4340  0.00  0.00     0.000 C
ATOM     79  C3  Z9L D   5      60.653  38.110  78.6650  0.00  0.00     0.000 C
ATOM     80  C4  Z9L D   5      61.739  38.988  77.7920  0.00  0.00     0.000 C
ATOM     81  C5  Z9L D   5      62.969  38.519  76.8610  0.00  0.00     0.000 C
ATOM     82  O5  Z9L D   5      63.609  37.436  77.5530  0.00  0.00     0.000 O
ATOM     83   C  Z9L D   5      62.922  35.083  76.3900  0.00  0.00     0.000 C
ATOM     84   C  Z9L D   5      62.922  35.083  76.3900  0.00  0.00     0.000 C
BRANCH 78 85
ATOM     85   O  Z9L D   5      60.930  35.894  79.8280  0.00  0.00     0.000 O
ATOM     86   O  Z9L D   5      61.011  35.070  81.5670  0.00  0.00     0.000 OA
ATOM     87   S  Z9L D   5      61.677  36.282  81.1980  0.00  0.00     0.000 S
ATOM     88   O  Z9L D   5      61.013  37.318  81.9490  0.00  0.00     0.000 OA
ATOM     89   O  Z9L D   5      63.066  35.982  81.2690  0.00  0.00     0.000 OA
ENDBRANCH 78 85
BRANCH 79 90
ATOM     90   O  Z9L D   5      60.156  39.051  79.5640  0.00  0.00     0.000 O
ATOM     91   S  Z9L D   5      58.785  38.445  79.0260  0.00  0.00     0.000 S
ATOM     92   O  Z9L D   5      58.484  37.039  79.0940  0.00  0.00     0.000 OA
ATOM     93   O  Z9L D   5      58.300  39.255  77.9370  0.00  0.00     0.000 O
ATOM     94   O  Z9L D   5      58.312  39.037  80.2360  0.00  0.00     0.000 OA
ENDBRANCH 79 90
BRANCH 81 95
ATOM     95   C  Z9L D   5      63.930  39.720  76.1920  0.00  0.00     0.000 C
ATOM     96   S  Z9L D   5      65.608  40.770  76.4120  0.00  0.00     0.000 S
ATOM     97   O  Z9L D   5      64.510  40.189  77.3800  0.00  0.00     0.000 O
ATOM     98   O  Z9L D   5      65.008  41.886  75.7270  0.00  0.00     0.000 OA
ATOM     99   O  Z9L D   5      66.392  39.807  75.7150  0.00  0.00     0.000 OA
ATOM    100   O  Z9L D   5      66.148  41.241  77.6640  0.00  0.00     0.000 O
ENDBRANCH 81 95
ENDBRANCH 76 80
ENDBRANCH 60 76
ENDBRANCH 59 63
ENDBRANCH 37 59
ENDBRANCH 36 40
ENDBRANCH 23 36
ENDBRANCH 22 26
ENDBRANCH 1 22
TORSDOF 19
ENDMDL
MODEL 78
REMARK VINA RESULT:      -0.4     54.371     60.502
ROOT
ATOM      1  C1  Z9H D   1      73.867   4.888   8.6580  0.00  0.00     0.000 C
ATOM      2  C2  Z9H D   1      73.419   4.065   7.4260  0.00  0.00     0.000 C
ATOM      3  C3  Z9H D   1      71.896   3.990   7.7520  0.00  0.00     0.000 C
ATOM      4  C4  Z9H D   1      71.537   3.511   9.2190  0.00  0.00     0.000 C
ATOM      5  C5  Z9H D   1      72.233   4.093  10.5130  0.00  0.00     0.000 C
ATOM      6  O5  Z9H D   1      73.547   4.435  10.0030  0.00  0.00     0.000 O
ATOM      7   O  Z9H D   1      71.190   3.208   6.7860  0.00  0.00     0.000 O
ATOM      8   C  Z9H D   1      70.520   3.957   5.7580  0.00  0.00     0.000 C
ATOM      9   O  Z9H D   1      70.129   3.724   9.3640  0.00  0.00     0.000 O
ATOM     10   C  Z9H D   1      69.307   2.567   9.1800  0.00  0.00     0.000 C
ENDROOT
BRANCH 2 11
ATOM     11   O  Z9H D   1      73.527   5.007   6.3910  0.00  0.00     0.000 O
ATOM     12   O  Z9H D   1      74.785   4.903   4.9900  0.00  0.00     0.000 OA
ATOM     13   S  Z9H D   1      74.634   3.931   6.0200  0.00  0.00     0.000 S
ATOM     14   O  Z9H D   1      73.972   2.732   5.5910  0.00  0.00     0.000 OA
ATOM     15   O  Z9H D   1      75.755   3.981   6.9300  0.00  0.00     0.000 O
ENDBRANCH 2 11
BRANCH 5 16
ATOM     16   C  Z9H D   1      72.050   3.166  11.8940  0.00  0.00     0.000 C
ATOM     17   S  Z9H D   1      71.797   3.244  13.8870  0.00  0.00     0.000 S
ATOM     18   O  Z9H D   1      71.226   4.053  12.6120  0.00  0.00     0.000 O
ATOM     19   O  Z9H D   1      73.193   3.444  14.1520  0.00  0.00     0.000 O
ATOM     20   O  Z9H D   1      71.158   1.979  13.9910  0.00  0.00     0.000 OA
ATOM     21   O  Z9H D   1      70.979   4.205  14.5670  0.00  0.00     0.000 OA
ENDBRANCH 5 16
BRANCH 1 22
ATOM     22  O4  GU1 D   2      73.343   6.264   8.7070  0.00  0.00     0.000 O
BRANCH 22 26
ATOM     23  C1  GU1 D   2      74.168  10.147   9.8080  0.00  0.00     0.000 C
ATOM     24  C2  GU1 D   2      75.362   9.363   9.2840  0.00  0.00     0.000 C
ATOM     25  C3  GU1 D   2      74.876   8.134   8.5730  0.00  0.00     0.000 C
ATOM     26  C4  GU1 D   2      73.941   7.326   9.4610  0.00  0.00     0.000 C
ATOM     27  C5  GU1 D   2      72.836   8.229  10.0180  0.00  0.00     0.000 C
ATOM     28  O5  GU1 D   2      73.402   9.345  10.7000  0.00  0.00     0.000 O
ATOM     29   O  GU1 D   2      76.140  10.127   8.3710  0.00  0.00     0.000 O
ATOM     30   C  GU1 D   2      77.268  10.756   8.9620  0.00  0.00     0.000 C
ATOM     31   C  GU1 D   2      76.423   7.395   6.8830  0.00  0.00     0.000 C
ATOM     32   O  GU1 D   2      76.009   7.323   8.2460  0.00  0.00     0.000 O
BRANCH 27 33
ATOM     33   C  GU1 D   2      71.963   7.483  10.9990  0.00  0.00     0.000 C
ATOM     34   O  GU1 D   2      72.434   7.174  12.0740  0.00  0.00     0.000 OA
ATOM     35   O  GU1 D   2      70.809   7.202  10.7130  0.00  0.00     0.000 O
ENDBRANCH 27 33
BRANCH 23 36
ATOM     36  O4  GU6 D   3      74.369  11.233  10.7340  0.00  0.00     0.000 O
BRANCH 36 40
ATOM     37  C1  GU6 D   3      74.695  13.512  14.1100  0.00  0.00     0.000 C
ATOM     38  C2  GU6 D   3      74.345  14.307  12.8580  0.00  0.00     0.000 C
ATOM     39  C3  GU6 D   3      73.983  13.361  11.7430  0.00  0.00     0.000 C
ATOM     40  C4  GU6 D   3      74.233  11.931  11.9560  0.00  0.00     0.000 C
ATOM     41  C5  GU6 D   3      75.571  11.745  12.7440  0.00  0.00     0.000 C
ATOM     42  O5  GU6 D   3      75.798  12.668  13.8160  0.00  0.00     0.000 O
BRANCH 38 43
ATOM     43   O  GU6 D   3      73.268  15.188  13.1130  0.00  0.00     0.000 O
ATOM     44   S  GU6 D   3      73.559  16.647  12.7900  0.00  0.00     0.000 S
ATOM     45   O  GU6 D   3      74.299  17.239  13.9170  0.00  0.00     0.000 OA
ATOM     46   O  GU6 D   3      74.390  16.704  11.5740  0.00  0.00     0.000 O
ATOM     47   O  GU6 D   3      72.294  17.340  12.5630  0.00  0.00     0.000 OA
ENDBRANCH 38 43
BRANCH 39 48
ATOM     48   O  GU6 D   3      73.221  13.801  10.6360  0.00  0.00     0.000 O
ATOM     49   S  GU6 D   3      71.722  13.674  10.3640  0.00  0.00     0.000 S
ATOM     50   O  GU6 D   3      70.957  14.251  11.4750  0.00  0.00     0.000 OA
ATOM     51   O  GU6 D   3      71.540  14.454   9.1320  0.00  0.00     0.000 OA
ATOM     52   O  GU6 D   3      71.383  12.242  10.2040  0.00  0.00     0.000 O
ENDBRANCH 39 48
BRANCH 41 53
ATOM     53   C  GU6 D   3      76.654  10.719  12.5450  0.00  0.00     0.000 C
ATOM     54   O  GU6 D   3      75.907   9.583  12.8950  0.00  0.00     0.000 O
ATOM     55   S  GU6 D   3      76.577   8.205  12.9770  0.00  0.00     0.000 S
ATOM     56   O  GU6 D   3      77.539   8.264  14.1020  0.00  0.00     0.000 O
ATOM     57   O  GU6 D   3      75.541   7.194  13.2310  0.00  0.00     0.000 OA
ATOM     58   O  GU6 D   3      77.275   7.979  11.6910  0.00  0.00     0.000 OA
ENDBRANCH 41 53
BRANCH 37 59
ATOM     59  O4  Z9K D   4      73.759  12.739  14.8890  0.00  0.00     0.000 O
BRANCH 59 63
ATOM     60  C1  Z9K D   4      70.941  12.071  17.5470  0.00  0.00     0.000 C
ATOM     61  C2  Z9K D   4      71.347  13.529  17.8980  0.00  0.00     0.000 C
ATOM     62  C3  Z9K D   4      72.351  13.858  16.7090  0.00  0.00     0.000 C
ATOM     63  C4  Z9K D   4      73.443  12.793  16.3110  0.00  0.00     0.000 C
ATOM     64  C5  Z9K D   4      73.106  11.329  16.6290  0.00  0.00     0.000 C
ATOM     65  O5  Z9K D   4      71.662  11.291  16.4820  0.00  0.00     0.000 O
ATOM     66   O  Z9K D   4      73.081  15.082  16.9030  0.00  0.00     0.000 O
ATOM     67   C  Z9K D   4      72.400  16.246  16.4660  0.00  0.00     0.000 C
BRANCH 61 68
ATOM     68   O  Z9K D   4      70.217  14.332  17.6920  0.00  0.00     0.000 O
ATOM     69   O  Z9K D   4      71.630  15.206  19.6390  0.00  0.00     0.000 OA
ATOM     70   S  Z9K D   4      70.446  14.480  19.2890  0.00  0.00     0.000 S
ATOM     71   O  Z9K D   4      69.965  13.300  19.9400  0.00  0.00     0.000 OA
ATOM     72   O  Z9K D   4      69.355  15.369  19.0510  0.00  0.00     0.000 OA
ENDBRANCH 61 68
BRANCH 64 73
ATOM     73   C  Z9K D   4      73.964  10.370  15.7770  0.00  0.00     0.000 C
ATOM     74   O  Z9K D   4      75.199  10.217  16.0050  0.00  0.00     0.000 O
ATOM     75   O  Z9K D   4      73.472   9.704  14.8340  0.00  0.00     0.000 OA
ENDBRANCH 64 73
BRANCH 60 76
ATOM     76  O4  Z9L D   5      70.793  10.947  18.4310  0.00  0.00     0.000 O
BRANCH 76 80
ATOM     77  C1  Z9L D   5      68.653   7.653  19.1660  0.00  0.00     0.000 C
ATOM     78  C2  Z9L D   5      70.141   7.175  18.8040  0.00  0.00     0.000 C
ATOM     79  C3  Z9L D   5      71.136   8.536  18.9470  0.00  0.00     0.000 C
ATOM     80  C4  Z9L D   5      70.195   9.690  18.2410  0.00  0.00     0.000 C
ATOM     81  C5  Z9L D   5      68.631  10.035  18.4280  0.00  0.00     0.000 C
ATOM     82  O5  Z9L D   5      67.946   8.775  18.4980  0.00  0.00     0.000 O
ATOM     83   C  Z9L D   5      67.278   8.249  21.0750  0.00  0.00     0.000 C
ATOM     84   C  Z9L D   5      67.278   8.249  21.0750  0.00  0.00     0.000 C
BRANCH 78 85
ATOM     85   O  Z9L D   5      70.530   6.225  19.7430  0.00  0.00     0.000 O
ATOM     86   O  Z9L D   5      70.791   4.351  19.3790  0.00  0.00     0.000 OA
ATOM     87   S  Z9L D   5      70.514   5.352  18.3940  0.00  0.00     0.000 S
ATOM     88   O  Z9L D   5      71.726   5.459  17.6190  0.00  0.00     0.000 OA
ATOM     89   O  Z9L D   5      69.235   5.018  17.8700  0.00  0.00     0.000 OA
ENDBRANCH 78 85
BRANCH 79 90
ATOM     90   O  Z9L D   5      72.224   8.462  18.0820  0.00  0.00     0.000 O
ATOM     91   S  Z9L D   5      72.994   8.607  19.4680  0.00  0.00     0.000 S
ATOM     92   O  Z9L D   5      72.783   7.700  20.5660  0.00  0.00     0.000 OA
ATOM     93   O  Z9L D   5      73.297   9.997  19.7030  0.00  0.00     0.000 O
ATOM     94   O  Z9L D   5      74.054   8.072  18.6760  0.00  0.00     0.000 OA
ENDBRANCH 79 90
BRANCH 81 95
ATOM     95   C  Z9L D   5      67.988  11.241  17.4560  0.00  0.00     0.000 C
ATOM     96   S  Z9L D   5      66.993  11.614  15.7710  0.00  0.00     0.000 S
ATOM     97   O  Z9L D   5      68.082  10.572  16.2270  0.00  0.00     0.000 O
ATOM     98   O  Z9L D   5      67.661  12.885  15.6500  0.00  0.00     0.000 OA
ATOM     99   O  Z9L D   5      65.724  11.501  16.4060  0.00  0.00     0.000 OA
ATOM    100   O  Z9L D   5      67.146  10.899  14.5280  0.00  0.00     0.000 O
ENDBRANCH 81 95
ENDBRANCH 76 80
ENDBRANCH 60 76
ENDBRANCH 59 63
ENDBRANCH 37 59
ENDBRANCH 36 40
ENDBRANCH 23 36
ENDBRANCH 22 26
ENDBRANCH 1 22
TORSDOF 19
ENDMDL
MODEL 79
REMARK VINA RESULT:      -0.4    107.156    114.505
ROOT
ATOM      1  C1  Z9H D   1     121.005  44.743  29.9260  0.00  0.00     0.000 C
ATOM      2  C2  Z9H D   1     120.258  44.257  28.6610  0.00  0.00     0.000 C
ATOM      3  C3  Z9H D   1     120.924  42.852  28.5370  0.00  0.00     0.000 C
ATOM      4  C4  Z9H D   1     122.507  42.843  28.5950  0.00  0.00     0.000 C
ATOM      5  C5  Z9H D   1     123.336  43.625  29.6900  0.00  0.00     0.000 C
ATOM      6  O5  Z9H D   1     122.459  44.746  29.9680  0.00  0.00     0.000 O
ATOM      7   O  Z9H D   1     120.465  42.153  27.3780  0.00  0.00     0.000 O
ATOM      8   C  Z9H D   1     119.423  41.190  27.6120  0.00  0.00     0.000 C
ATOM      9   O  Z9H D   1     122.885  41.465  28.6840  0.00  0.00     0.000 O
ATOM     10   C  Z9H D   1     123.293  40.856  27.4560  0.00  0.00     0.000 C
ENDROOT
BRANCH 2 11
ATOM     11   O  Z9H D   1     118.970  44.009  29.1590  0.00  0.00     0.000 O
ATOM     12   O  Z9H D   1     117.442  45.011  28.6920  0.00  0.00     0.000 OA
ATOM     13   S  Z9H D   1     118.745  45.221  28.1570  0.00  0.00     0.000 S
ATOM     14   O  Z9H D   1     118.908  44.734  26.8170  0.00  0.00     0.000 OA
ATOM     15   O  Z9H D   1     119.308  46.449  28.6700  0.00  0.00     0.000 O
ENDBRANCH 2 11
BRANCH 5 16
ATOM     16   C  Z9H D   1     124.953  43.855  29.3250  0.00  0.00     0.000 C
ATOM     17   S  Z9H D   1     126.813  43.847  30.0880  0.00  0.00     0.000 S
ATOM     18   O  Z9H D   1     125.490  42.936  30.2460  0.00  0.00     0.000 O
ATOM     19   O  Z9H D   1     126.700  45.172  30.6270  0.00  0.00     0.000 O
ATOM     20   O  Z9H D   1     127.462  43.560  28.8560  0.00  0.00     0.000 OA
ATOM     21   O  Z9H D   1     127.289  42.910  31.0620  0.00  0.00     0.000 OA
ENDBRANCH 5 16
BRANCH 1 22
ATOM     22  O4  GU1 D   2     120.703  43.986  31.1530  0.00  0.00     0.000 O
BRANCH 22 26
ATOM     23  C1  GU1 D   2     120.218  44.236  35.2360  0.00  0.00     0.000 C
ATOM     24  C2  GU1 D   2     119.734  45.450  34.4590  0.00  0.00     0.000 C
ATOM     25  C3  GU1 D   2     119.606  45.093  33.0060  0.00  0.00     0.000 C
ATOM     26  C4  GU1 D   2     120.900  44.490  32.4790  0.00  0.00     0.000 C
ATOM     27  C5  GU1 D   2     121.355  43.346  33.3890  0.00  0.00     0.000 C
ATOM     28  O5  GU1 D   2     121.476  43.797  34.7350  0.00  0.00     0.000 O
ATOM     29   O  GU1 D   2     118.466  45.905  34.9180  0.00  0.00     0.000 O
ATOM     30   C  GU1 D   2     118.542  46.978  35.8460  0.00  0.00     0.000 C
ATOM     31   C  GU1 D   2     117.961  46.444  31.8830  0.00  0.00     0.000 C
ATOM     32   O  GU1 D   2     119.324  46.287  32.2700  0.00  0.00     0.000 O
BRANCH 27 33
ATOM     33   C  GU1 D   2     122.699  42.807  32.9590  0.00  0.00     0.000 C
ATOM     34   O  GU1 D   2     122.746  41.698  32.4670  0.00  0.00     0.000 OA
ATOM     35   O  GU1 D   2     123.711  43.476  33.1020  0.00  0.00     0.000 O
ENDBRANCH 27 33
BRANCH 23 36
ATOM     36  O4  GU6 D   3     120.655  44.381  36.6020  0.00  0.00     0.000 O
BRANCH 36 40
ATOM     37  C1  GU6 D   3     122.909  44.853  39.9770  0.00  0.00     0.000 C
ATOM     38  C2  GU6 D   3     121.574  44.158  40.2170  0.00  0.00     0.000 C
ATOM     39  C3  GU6 D   3     120.951  43.791  38.8950  0.00  0.00     0.000 C
ATOM     40  C4  GU6 D   3     121.570  44.329  37.6780  0.00  0.00     0.000 C
ATOM     41  C5  GU6 D   3     122.056  45.793  37.9420  0.00  0.00     0.000 C
ATOM     42  O5  GU6 D   3     122.677  46.025  39.2110  0.00  0.00     0.000 O
BRANCH 38 43
ATOM     43   O  GU6 D   3     121.752  42.997  41.0050  0.00  0.00     0.000 O
ATOM     44   S  GU6 D   3     120.904  42.960  42.2700  0.00  0.00     0.000 S
ATOM     45   O  GU6 D   3     121.577  43.760  43.3080  0.00  0.00     0.000 OA
ATOM     46   O  GU6 D   3     119.587  43.552  41.9720  0.00  0.00     0.000 O
ATOM     47   O  GU6 D   3     120.745  41.571  42.6890  0.00  0.00     0.000 OA
ENDBRANCH 38 43
BRANCH 39 48
ATOM     48   O  GU6 D   3     119.959  42.786  38.8130  0.00  0.00     0.000 O
ATOM     49   S  GU6 D   3     120.086  41.312  38.4300  0.00  0.00     0.000 S
ATOM     50   O  GU6 D   3     121.082  40.652  39.2830  0.00  0.00     0.000 OA
ATOM     51   O  GU6 D   3     118.738  40.785  38.6820  0.00  0.00     0.000 OA
ATOM     52   O  GU6 D   3     120.494  41.218  37.0110  0.00  0.00     0.000 O
ENDBRANCH 39 48
BRANCH 41 53
ATOM     53   C  GU6 D   3     121.976  46.994  37.0390  0.00  0.00     0.000 C
ATOM     54   O  GU6 D   3     122.845  46.537  36.0350  0.00  0.00     0.000 O
ATOM     55   S  GU6 D   3     123.233  47.451  34.8660  0.00  0.00     0.000 S
ATOM     56   O  GU6 D   3     124.028  48.562  35.4380  0.00  0.00     0.000 O
ATOM     57   O  GU6 D   3     124.037  46.675  33.9110  0.00  0.00     0.000 OA
ATOM     58   O  GU6 D   3     121.976  47.951  34.2630  0.00  0.00     0.000 OA
ENDBRANCH 41 53
BRANCH 37 59
ATOM     59  O4  Z9K D   4     124.090  44.218  39.4440  0.00  0.00     0.000 O
BRANCH 59 63
ATOM     60  C1  Z9K D   4     127.374  42.060  39.4800  0.00  0.00     0.000 C
ATOM     61  C2  Z9K D   4     127.114  42.238  41.0020  0.00  0.00     0.000 C
ATOM     62  C3  Z9K D   4     125.692  42.949  40.9830  0.00  0.00     0.000 C
ATOM     63  C4  Z9K D   4     125.442  44.140  39.9810  0.00  0.00     0.000 C
ATOM     64  C5  Z9K D   4     126.302  44.142  38.7080  0.00  0.00     0.000 C
ATOM     65  O5  Z9K D   4     126.502  42.727  38.4520  0.00  0.00     0.000 O
ATOM     66   O  Z9K D   4     125.295  43.458  42.2690  0.00  0.00     0.000 O
ATOM     67   C  Z9K D   4     124.655  42.507  43.1040  0.00  0.00     0.000 C
BRANCH 61 68
ATOM     68   O  Z9K D   4     126.908  40.958  41.5350  0.00  0.00     0.000 O
ATOM     69   O  Z9K D   4     128.084  42.486  43.2190  0.00  0.00     0.000 OA
ATOM     70   S  Z9K D   4     128.269  41.417  42.2830  0.00  0.00     0.000 S
ATOM     71   O  Z9K D   4     129.367  41.282  41.3760  0.00  0.00     0.000 OA
ATOM     72   O  Z9K D   4     127.996  40.155  42.8900  0.00  0.00     0.000 OA
ENDBRANCH 61 68
BRANCH 64 73
ATOM     73   C  Z9K D   4     125.654  45.010  37.6090  0.00  0.00     0.000 C
ATOM     74   O  Z9K D   4     125.632  46.272  37.6980  0.00  0.00     0.000 O
ATOM     75   O  Z9K D   4     125.132  44.502  36.5870  0.00  0.00     0.000 OA
ENDBRANCH 64 73
BRANCH 60 76
ATOM     76  O4  Z9L D   5     128.595  42.275  38.7500  0.00  0.00     0.000 O
BRANCH 76 80
ATOM     77  C1  Z9L D   5     130.913  40.867  35.8150  0.00  0.00     0.000 C
ATOM     78  C2  Z9L D   5     130.380  42.304  35.3440  0.00  0.00     0.000 C
ATOM     79  C3  Z9L D   5     129.800  43.084  36.7280  0.00  0.00     0.000 C
ATOM     80  C4  Z9L D   5     128.999  41.853  37.4730  0.00  0.00     0.000 C
ATOM     81  C5  Z9L D   5     129.436  40.326  37.7510  0.00  0.00     0.000 C
ATOM     82  O5  Z9L D   5     130.099  39.873  36.5610  0.00  0.00     0.000 O
ATOM     83   C  Z9L D   5     132.781  39.837  36.9740  0.00  0.00     0.000 C
ATOM     84   C  Z9L D   5     132.781  39.837  36.9740  0.00  0.00     0.000 C
BRANCH 78 85
ATOM     85   O  Z9L D   5     131.460  43.020  34.8350  0.00  0.00     0.000 O
ATOM     86   O  Z9L D   5     131.703  43.489  32.9830  0.00  0.00     0.000 OA
ATOM     87   S  Z9L D   5     130.536  42.865  33.5290  0.00  0.00     0.000 S
ATOM     88   O  Z9L D   5     129.498  43.860  33.4300  0.00  0.00     0.000 OA
ATOM     89   O  Z9L D   5     130.491  41.573  32.9360  0.00  0.00     0.000 OA
ENDBRANCH 78 85
BRANCH 79 90
ATOM     90   O  Z9L D   5     128.772  43.970  36.4180  0.00  0.00     0.000 O
ATOM     91   S  Z9L D   5     129.795  44.979  37.1060  0.00  0.00     0.000 S
ATOM     92   O  Z9L D   5     131.150  45.135  36.6460  0.00  0.00     0.000 OA
ATOM     93   O  Z9L D   5     129.466  45.113  38.5030  0.00  0.00     0.000 O
ATOM     94   O  Z9L D   5     128.995  45.921  36.3920  0.00  0.00     0.000 OA
ENDBRANCH 79 90
BRANCH 81 95
ATOM     95   C  Z9L D   5     128.302  39.319  38.4670  0.00  0.00     0.000 C
ATOM     96   S  Z9L D   5     126.883  37.964  38.1230  0.00  0.00     0.000 S
ATOM     97   O  Z9L D   5     127.384  39.274  37.4070  0.00  0.00     0.000 O
ATOM     98   O  Z9L D   5     126.186  38.382  39.3120  0.00  0.00     0.000 OA
ATOM     99   O  Z9L D   5     127.806  36.880  38.1470  0.00  0.00     0.000 OA
ATOM    100   O  Z9L D   5     125.953  37.981  37.0200  0.00  0.00     0.000 O
ENDBRANCH 81 95
ENDBRANCH 76 80
ENDBRANCH 60 76
ENDBRANCH 59 63
ENDBRANCH 37 59
ENDBRANCH 36 40
ENDBRANCH 23 36
ENDBRANCH 22 26
ENDBRANCH 1 22
TORSDOF 19
ENDMDL
MODEL 80
REMARK VINA RESULT:      -0.4     89.967     96.415
ROOT
ATOM      1  C1  Z9H D   1      62.138  48.259  95.6530  0.00  0.00     0.000 C
ATOM      2  C2  Z9H D   1      62.591  49.597  96.2850  0.00  0.00     0.000 C
ATOM      3  C3  Z9H D   1      63.036  50.320  94.9770  0.00  0.00     0.000 C
ATOM      4  C4  Z9H D   1      64.015  49.495  94.0440  0.00  0.00     0.000 C
ATOM      5  C5  Z9H D   1      63.762  47.986  93.6450  0.00  0.00     0.000 C
ATOM      6  O5  Z9H D   1      63.046  47.499  94.8080  0.00  0.00     0.000 O
ATOM      7   O  Z9H D   1      63.582  51.612  95.2500  0.00  0.00     0.000 O
ATOM      8   C  Z9H D   1      62.677  52.714  95.0700  0.00  0.00     0.000 C
ATOM      9   O  Z9H D   1      64.114  50.242  92.8270  0.00  0.00     0.000 O
ATOM     10   C  Z9H D   1      65.279  51.063  92.7000  0.00  0.00     0.000 C
ENDROOT
BRANCH 2 11
ATOM     11   O  Z9H D   1      61.364  50.187  96.6290  0.00  0.00     0.000 O
ATOM     12   O  Z9H D   1      60.790  50.479  98.4020  0.00  0.00     0.000 OA
ATOM     13   S  Z9H D   1      62.051  49.926  98.0380  0.00  0.00     0.000 S
ATOM     14   O  Z9H D   1      63.148  50.840  98.1810  0.00  0.00     0.000 OA
ATOM     15   O  Z9H D   1      62.095  48.517  98.3580  0.00  0.00     0.000 O
ENDBRANCH 2 11
BRANCH 5 16
ATOM     16   C  Z9H D   1      65.098  47.178  93.0430  0.00  0.00     0.000 C
ATOM     17   S  Z9H D   1      65.715  45.847  91.6700  0.00  0.00     0.000 S
ATOM     18   O  Z9H D   1      64.677  47.083  91.7040  0.00  0.00     0.000 O
ATOM     19   O  Z9H D   1      65.326  44.712  92.4560  0.00  0.00     0.000 O
ATOM     20   O  Z9H D   1      67.050  46.329  91.6040  0.00  0.00     0.000 OA
ATOM     21   O  Z9H D   1      65.212  45.768  90.3290  0.00  0.00     0.000 OA
ENDBRANCH 5 16
BRANCH 1 22
ATOM     22  O4  GU1 D   2      60.967  48.359  94.7640  0.00  0.00     0.000 O
BRANCH 22 26
ATOM     23  C1  GU1 D   2      57.551  46.458  93.4620  0.00  0.00     0.000 C
ATOM     24  C2  GU1 D   2      57.896  46.223  94.9250  0.00  0.00     0.000 C
ATOM     25  C3  GU1 D   2      58.904  47.244  95.3690  0.00  0.00     0.000 C
ATOM     26  C4  GU1 D   2      60.108  47.259  94.4390  0.00  0.00     0.000 C
ATOM     27  C5  GU1 D   2      59.647  47.395  92.9850  0.00  0.00     0.000 C
ATOM     28  O5  GU1 D   2      58.721  46.363  92.6570  0.00  0.00     0.000 O
ATOM     29   O  GU1 D   2      56.753  46.333  95.7650  0.00  0.00     0.000 O
ATOM     30   C  GU1 D   2      56.149  45.086  96.0790  0.00  0.00     0.000 C
ATOM     31   C  GU1 D   2      58.771  47.678  97.7330  0.00  0.00     0.000 C
ATOM     32   O  GU1 D   2      59.346  46.899  96.6860  0.00  0.00     0.000 O
BRANCH 27 33
ATOM     33   C  GU1 D   2      60.812  47.292  92.0300  0.00  0.00     0.000 C
ATOM     34   O  GU1 D   2      61.358  46.216  91.8990  0.00  0.00     0.000 OA
ATOM     35   O  GU1 D   2      61.190  48.270  91.4040  0.00  0.00     0.000 O
ENDBRANCH 27 33
BRANCH 23 36
ATOM     36  O4  GU6 D   3      56.798  45.471  92.7320  0.00  0.00     0.000 O
BRANCH 36 40
ATOM     37  C1  GU6 D   3      55.685  42.361  90.3270  0.00  0.00     0.000 C
ATOM     38  C2  GU6 D   3      54.614  43.433  90.4870  0.00  0.00     0.000 C
ATOM     39  C3  GU6 D   3      55.209  44.645  91.1540  0.00  0.00     0.000 C
ATOM     40  C4  GU6 D   3      56.560  44.521  91.7120  0.00  0.00     0.000 C
ATOM     41  C5  GU6 D   3      56.734  43.104  92.3510  0.00  0.00     0.000 C
ATOM     42  O5  GU6 D   3      56.173  42.013  91.6130  0.00  0.00     0.000 O
BRANCH 38 43
ATOM     43   O  GU6 D   3      54.076  43.790  89.2280  0.00  0.00     0.000 O
ATOM     44   S  GU6 D   3      52.562  43.655  89.1310  0.00  0.00     0.000 S
ATOM     45   O  GU6 D   3      52.233  42.244  88.8630  0.00  0.00     0.000 OA
ATOM     46   O  GU6 D   3      51.969  44.060  90.4180  0.00  0.00     0.000 O
ATOM     47   O  GU6 D   3      52.080  44.525  88.0630  0.00  0.00     0.000 OA
ENDBRANCH 38 43
BRANCH 39 48
ATOM     48   O  GU6 D   3      54.591  45.913  91.0420  0.00  0.00     0.000 O
ATOM     49   S  GU6 D   3      54.901  47.075  90.1000  0.00  0.00     0.000 S
ATOM     50   O  GU6 D   3      54.859  46.621  88.7050  0.00  0.00     0.000 OA
ATOM     51   O  GU6 D   3      53.820  48.029  90.3820  0.00  0.00     0.000 OA
ATOM     52   O  GU6 D   3      56.246  47.606  90.4190  0.00  0.00     0.000 O
ENDBRANCH 39 48
BRANCH 41 53
ATOM     53   C  GU6 D   3      57.425  42.721  93.6330  0.00  0.00     0.000 C
ATOM     54   O  GU6 D   3      58.729  43.085  93.2620  0.00  0.00     0.000 O
ATOM     55   S  GU6 D   3      59.913  42.795  94.1950  0.00  0.00     0.000 S
ATOM     56   O  GU6 D   3      60.045  41.322  94.2740  0.00  0.00     0.000 O
ATOM     57   O  GU6 D   3      61.123  43.395  93.6160  0.00  0.00     0.000 OA
ATOM     58   O  GU6 D   3      59.580  43.371  95.5170  0.00  0.00     0.000 OA
ENDBRANCH 41 53
BRANCH 37 59
ATOM     59  O4  Z9K D   4      56.825  42.453  89.4460  0.00  0.00     0.000 O
BRANCH 59 63
ATOM     60  C1  Z9K D   4      58.820  42.268  86.0650  0.00  0.00     0.000 C
ATOM     61  C2  Z9K D   4      57.495  41.558  85.6720  0.00  0.00     0.000 C
ATOM     62  C3  Z9K D   4      56.625  41.798  86.9810  0.00  0.00     0.000 C
ATOM     63  C4  Z9K D   4      57.279  41.553  88.3930  0.00  0.00     0.000 C
ATOM     64  C5  Z9K D   4      58.806  41.706  88.4660  0.00  0.00     0.000 C
ATOM     65  O5  Z9K D   4      59.074  42.731  87.4730  0.00  0.00     0.000 O
ATOM     66   O  Z9K D   4      55.405  41.035  87.0000  0.00  0.00     0.000 O
ATOM     67   C  Z9K D   4      54.317  41.651  86.3300  0.00  0.00     0.000 C
BRANCH 61 68
ATOM     68   O  Z9K D   4      56.903  42.325  84.6590  0.00  0.00     0.000 O
ATOM     69   O  Z9K D   4      56.420  39.833  84.3350  0.00  0.00     0.000 OA
ATOM     70   S  Z9K D   4      57.216  40.936  83.8870  0.00  0.00     0.000 S
ATOM     71   O  Z9K D   4      58.609  40.886  83.5650  0.00  0.00     0.000 OA
ATOM     72   O  Z9K D   4      56.526  41.691  82.8920  0.00  0.00     0.000 OA
ENDBRANCH 61 68
BRANCH 64 73
ATOM     73   C  Z9K D   4      59.265  41.943  89.9200  0.00  0.00     0.000 C
ATOM     74   O  Z9K D   4      59.236  41.012  90.7760  0.00  0.00     0.000 O
ATOM     75   O  Z9K D   4      59.690  43.059  90.3060  0.00  0.00     0.000 OA
ENDBRANCH 64 73
BRANCH 60 76
ATOM     76  O4  Z9L D   5      60.171  41.826  85.8460  0.00  0.00     0.000 O
BRANCH 76 80
ATOM     77  C1  Z9L D   5      63.840  43.000  84.7840  0.00  0.00     0.000 C
ATOM     78  C2  Z9L D   5      63.927  42.508  86.3080  0.00  0.00     0.000 C
ATOM     79  C3  Z9L D   5      62.530  41.601  86.6060  0.00  0.00     0.000 C
ATOM     80  C4  Z9L D   5      61.389  42.524  85.8570  0.00  0.00     0.000 C
ATOM     81  C5  Z9L D   5      61.386  43.222  84.4030  0.00  0.00     0.000 C
ATOM     82  O5  Z9L D   5      62.702  43.762  84.2120  0.00  0.00     0.000 O
ATOM     83   C  Z9L D   5      64.100  42.168  82.5190  0.00  0.00     0.000 C
ATOM     84   C  Z9L D   5      64.100  42.168  82.5190  0.00  0.00     0.000 C
BRANCH 78 85
ATOM     85   O  Z9L D   5      65.041  41.684  86.4340  0.00  0.00     0.000 O
ATOM     86   O  Z9L D   5      66.639  42.125  87.4150  0.00  0.00     0.000 OA
ATOM     87   S  Z9L D   5      65.445  42.913  87.3870  0.00  0.00     0.000 S
ATOM     88   O  Z9L D   5      64.903  42.817  88.7200  0.00  0.00     0.000 OA
ATOM     89   O  Z9L D   5      65.811  44.125  86.7380  0.00  0.00     0.000 OA
ENDBRANCH 78 85
BRANCH 79 90
ATOM     90   O  Z9L D   5      62.151  41.679  87.9430  0.00  0.00     0.000 O
ATOM     91   S  Z9L D   5      62.333  40.102  87.8080  0.00  0.00     0.000 S
ATOM     92   O  Z9L D   5      63.563  39.504  87.3600  0.00  0.00     0.000 OA
ATOM     93   O  Z9L D   5      61.060  39.500  87.5000  0.00  0.00     0.000 O
ATOM     94   O  Z9L D   5      62.412  40.217  89.2280  0.00  0.00     0.000 OA
ENDBRANCH 79 90
BRANCH 81 95
ATOM     95   C  Z9L D   5      60.064  44.177  84.0120  0.00  0.00     0.000 C
ATOM     96   S  Z9L D   5      59.359  46.040  83.9720  0.00  0.00     0.000 S
ATOM     97   O  Z9L D   5      60.292  45.211  84.9330  0.00  0.00     0.000 O
ATOM     98   O  Z9L D   5      58.020  45.545  84.1640  0.00  0.00     0.000 OA
ATOM     99   O  Z9L D   5      59.877  46.288  82.6690  0.00  0.00     0.000 OA
ATOM    100   O  Z9L D   5      59.615  47.058  84.9600  0.00  0.00     0.000 O
ENDBRANCH 81 95
ENDBRANCH 76 80
ENDBRANCH 60 76
ENDBRANCH 59 63
ENDBRANCH 37 59
ENDBRANCH 36 40
ENDBRANCH 23 36
ENDBRANCH 22 26
ENDBRANCH 1 22
TORSDOF 19
ENDMDL
MODEL 81
REMARK VINA RESULT:      -0.4     90.058     96.751
ROOT
ATOM      1  C1  Z9H D   1      66.095  47.448  93.5820  0.00  0.00     0.000 C
ATOM      2  C2  Z9H D   1      66.293  48.847  94.2120  0.00  0.00     0.000 C
ATOM      3  C3  Z9H D   1      66.747  49.606  92.9270  0.00  0.00     0.000 C
ATOM      4  C4  Z9H D   1      67.914  48.916  92.1070  0.00  0.00     0.000 C
ATOM      5  C5  Z9H D   1      67.916  47.380  91.7320  0.00  0.00     0.000 C
ATOM      6  O5  Z9H D   1      67.175  46.813  92.8420  0.00  0.00     0.000 O
ATOM      7   O  Z9H D   1      67.076  50.968  93.2100  0.00  0.00     0.000 O
ATOM      8   C  Z9H D   1      66.043  51.924  92.9190  0.00  0.00     0.000 C
ATOM      9   O  Z9H D   1      68.016  49.650  90.8830  0.00  0.00     0.000 O
ATOM     10   C  Z9H D   1      69.058  50.629  90.8340  0.00  0.00     0.000 C
ENDROOT
BRANCH 2 11
ATOM     11   O  Z9H D   1      64.969  49.258  94.4310  0.00  0.00     0.000 O
ATOM     12   O  Z9H D   1      64.201  49.493  96.1370  0.00  0.00     0.000 OA
ATOM     13   S  Z9H D   1      65.555  49.122  95.9010  0.00  0.00     0.000 S
ATOM     14   O  Z9H D   1      66.493  50.188  96.1120  0.00  0.00     0.000 OA
ATOM     15   O  Z9H D   1      65.771  47.741  96.2640  0.00  0.00     0.000 O
ENDBRANCH 2 11
BRANCH 5 16
ATOM     16   C  Z9H D   1      69.403  46.765  91.2730  0.00  0.00     0.000 C
ATOM     17   S  Z9H D   1      70.325  45.515  89.9970  0.00  0.00     0.000 S
ATOM     18   O  Z9H D   1      69.123  46.588  89.9050  0.00  0.00     0.000 O
ATOM     19   O  Z9H D   1      70.033  44.348  90.7790  0.00  0.00     0.000 O
ATOM     20   O  Z9H D   1      71.578  46.185  90.0350  0.00  0.00     0.000 OA
ATOM     21   O  Z9H D   1      69.962  45.343  88.6210  0.00  0.00     0.000 OA
ENDBRANCH 5 16
BRANCH 1 22
ATOM     22  O4  GU1 D   2      65.007  47.362  92.5920  0.00  0.00     0.000 O
BRANCH 22 26
ATOM     23  C1  GU1 D   2      62.030  44.967  91.0520  0.00  0.00     0.000 C
ATOM     24  C2  GU1 D   2      62.270  44.808  92.5460  0.00  0.00     0.000 C
ATOM     25  C3  GU1 D   2      63.078  45.971  93.0460  0.00  0.00     0.000 C
ATOM     26  C4  GU1 D   2      64.347  46.145  92.2250  0.00  0.00     0.000 C
ATOM     27  C5  GU1 D   2      64.004  46.189  90.7330  0.00  0.00     0.000 C
ATOM     28  O5  GU1 D   2      63.269  45.029  90.3560  0.00  0.00     0.000 O
ATOM     29   O  GU1 D   2      61.052  44.764  93.2800  0.00  0.00     0.000 O
ATOM     30   C  GU1 D   2      60.607  43.448  93.5760  0.00  0.00     0.000 C
ATOM     31   C  GU1 D   2      62.672  46.418  95.3760  0.00  0.00     0.000 C
ATOM     32   O  GU1 D   2      63.444  45.715  94.4060  0.00  0.00     0.000 O
BRANCH 27 33
ATOM     33   C  GU1 D   2      65.254  46.241  89.8870  0.00  0.00     0.000 C
ATOM     34   O  GU1 D   2      65.957  45.253  89.8350  0.00  0.00     0.000 OA
ATOM     35   O  GU1 D   2      65.544  47.253  89.2680  0.00  0.00     0.000 O
ENDBRANCH 27 33
BRANCH 23 36
ATOM     36  O4  GU6 D   3      61.494  43.869  90.2880  0.00  0.00     0.000 O
BRANCH 36 40
ATOM     37  C1  GU6 D   3      61.059  40.592  87.8860  0.00  0.00     0.000 C
ATOM     38  C2  GU6 D   3      59.836  41.500  87.9210  0.00  0.00     0.000 C
ATOM     39  C3  GU6 D   3      60.189  42.797  88.6020  0.00  0.00     0.000 C
ATOM     40  C4  GU6 D   3      61.488  42.879  89.2790  0.00  0.00     0.000 C
ATOM     41  C5  GU6 D   3      61.804  41.512  89.9720  0.00  0.00     0.000 C
ATOM     42  O5  GU6 D   3      61.473  40.339  89.2200  0.00  0.00     0.000 O
BRANCH 38 43
ATOM     43   O  GU6 D   3      59.368  41.755  86.6100  0.00  0.00     0.000 O
ATOM     44   S  GU6 D   3      57.904  41.401  86.3850  0.00  0.00     0.000 S
ATOM     45   O  GU6 D   3      57.806  39.954  86.1310  0.00  0.00     0.000 OA
ATOM     46   O  GU6 D   3      57.146  41.737  87.6040  0.00  0.00     0.000 O
ATOM     47   O  GU6 D   3      57.402  42.175  85.2540  0.00  0.00     0.000 OA
ENDBRANCH 38 43
BRANCH 39 48
ATOM     48   O  GU6 D   3      59.409  43.959  88.4000  0.00  0.00     0.000 O
ATOM     49   S  GU6 D   3      59.634  45.139  87.4560  0.00  0.00     0.000 S
ATOM     50   O  GU6 D   3      59.783  44.662  86.0760  0.00  0.00     0.000 OA
ATOM     51   O  GU6 D   3      58.406  45.931  87.6140  0.00  0.00     0.000 OA
ATOM     52   O  GU6 D   3      60.854  45.864  87.8750  0.00  0.00     0.000 O
ENDBRANCH 39 48
BRANCH 41 53
ATOM     53   C  GU6 D   3      62.423  41.254  91.3190  0.00  0.00     0.000 C
ATOM     54   O  GU6 D   3      63.691  41.796  91.0530  0.00  0.00     0.000 O
ATOM     55   S  GU6 D   3      64.814  41.696  92.0940  0.00  0.00     0.000 S
ATOM     56   O  GU6 D   3      65.147  40.259  92.2270  0.00  0.00     0.000 O
ATOM     57   O  GU6 D   3      65.974  42.456  91.6060  0.00  0.00     0.000 OA
ATOM     58   O  GU6 D   3      64.284  42.239  93.3650  0.00  0.00     0.000 OA
ENDBRANCH 41 53
BRANCH 37 59
ATOM     59  O4  Z9K D   4      62.249  40.834  87.1060  0.00  0.00     0.000 O
BRANCH 59 63
ATOM     60  C1  Z9K D   4      64.548  40.886  83.9180  0.00  0.00     0.000 C
ATOM     61  C2  Z9K D   4      63.379  39.985  83.4320  0.00  0.00     0.000 C
ATOM     62  C3  Z9K D   4      62.368  40.118  84.6520  0.00  0.00     0.000 C
ATOM     63  C4  Z9K D   4      62.920  39.992  86.1230  0.00  0.00     0.000 C
ATOM     64  C5  Z9K D   4      64.397  40.366  86.3240  0.00  0.00     0.000 C
ATOM     65  O5  Z9K D   4      64.604  41.403  85.3300  0.00  0.00     0.000 O
ATOM     66   O  Z9K D   4      61.273  39.187  84.5880  0.00  0.00     0.000 O
ATOM     67   C  Z9K D   4      60.174  39.628  83.8080  0.00  0.00     0.000 C
BRANCH 61 68
ATOM     68   O  Z9K D   4      62.777  40.642  82.3500  0.00  0.00     0.000 O
ATOM     69   O  Z9K D   4      62.687  38.101  82.0570  0.00  0.00     0.000 OA
ATOM     70   S  Z9K D   4      63.354  39.301  81.6490  0.00  0.00     0.000 S
ATOM     71   O  Z9K D   4      64.764  39.447  81.4510  0.00  0.00     0.000 OA
ATOM     72   O  Z9K D   4      62.656  39.932  80.5760  0.00  0.00     0.000 OA
ENDBRANCH 61 68
BRANCH 64 73
ATOM     73   C  Z9K D   4      64.684  40.690  87.8050  0.00  0.00     0.000 C
ATOM     74   O  Z9K D   4      64.711  39.779  88.6830  0.00  0.00     0.000 O
ATOM     75   O  Z9K D   4      64.909  41.863  88.1940  0.00  0.00     0.000 OA
ENDBRANCH 64 73
BRANCH 60 76
ATOM     76  O4  Z9L D   5      65.962  40.640  83.8310  0.00  0.00     0.000 O
BRANCH 76 80
ATOM     77  C1  Z9L D   5      69.507  42.316  83.0600  0.00  0.00     0.000 C
ATOM     78  C2  Z9L D   5      69.525  41.867  84.6000  0.00  0.00     0.000 C
ATOM     79  C3  Z9L D   5      68.251  40.772  84.8000  0.00  0.00     0.000 C
ATOM     80  C4  Z9L D   5      67.062  41.507  83.9280  0.00  0.00     0.000 C
ATOM     81  C5  Z9L D   5      67.091  42.174  82.4600  0.00  0.00     0.000 C
ATOM     82  O5  Z9L D   5      68.328  42.896  82.3680  0.00  0.00     0.000 O
ATOM     83   C  Z9L D   5      70.087  41.494  80.8510  0.00  0.00     0.000 C
ATOM     84   C  Z9L D   5      70.087  41.494  80.8510  0.00  0.00     0.000 C
BRANCH 78 85
ATOM     85   O  Z9L D   5      70.730  41.215  84.8450  0.00  0.00     0.000 O
ATOM     86   O  Z9L D   5      72.153  41.898  85.9490  0.00  0.00     0.000 OA
ATOM     87   S  Z9L D   5      70.866  42.505  85.7940  0.00  0.00     0.000 S
ATOM     88   O  Z9L D   5      70.224  42.353  87.0770  0.00  0.00     0.000 OA
ATOM     89   O  Z9L D   5      71.112  43.746  85.1450  0.00  0.00     0.000 OA
ENDBRANCH 78 85
BRANCH 79 90
ATOM     90   O  Z9L D   5      67.745  40.815  86.0970  0.00  0.00     0.000 O
ATOM     91   S  Z9L D   5      68.162  39.280  86.0230  0.00  0.00     0.000 S
ATOM     92   O  Z9L D   5      69.500  38.859  85.7020  0.00  0.00     0.000 OA
ATOM     93   O  Z9L D   5      67.021  38.494  85.6230  0.00  0.00     0.000 O
ATOM     94   O  Z9L D   5      68.094  39.428  87.4410  0.00  0.00     0.000 OA
ENDBRANCH 79 90
BRANCH 81 95
ATOM     95   C  Z9L D   5      65.687  42.922  81.9270  0.00  0.00     0.000 C
ATOM     96   S  Z9L D   5      64.730  44.662  81.7720  0.00  0.00     0.000 S
ATOM     97   O  Z9L D   5      65.680  43.992  82.8340  0.00  0.00     0.000 O
ATOM     98   O  Z9L D   5      63.464  43.981  81.8610  0.00  0.00     0.000 OA
ATOM     99   O  Z9L D   5      65.323  44.962  80.5120  0.00  0.00     0.000 OA
ATOM    100   O  Z9L D   5      64.748  45.722  82.7490  0.00  0.00     0.000 O
ENDBRANCH 81 95
ENDBRANCH 76 80
ENDBRANCH 60 76
ENDBRANCH 59 63
ENDBRANCH 37 59
ENDBRANCH 36 40
ENDBRANCH 23 36
ENDBRANCH 22 26
ENDBRANCH 1 22
TORSDOF 19
ENDMDL
MODEL 82
REMARK VINA RESULT:      -0.4     90.624     97.183
ROOT
ATOM      1  C1  Z9H D   1      63.789  47.558  95.4530  0.00  0.00     0.000 C
ATOM      2  C2  Z9H D   1      63.987  48.957  96.0830  0.00  0.00     0.000 C
ATOM      3  C3  Z9H D   1      64.441  49.717  94.7990  0.00  0.00     0.000 C
ATOM      4  C4  Z9H D   1      65.608  49.027  93.9780  0.00  0.00     0.000 C
ATOM      5  C5  Z9H D   1      65.610  47.491  93.6040  0.00  0.00     0.000 C
ATOM      6  O5  Z9H D   1      64.869  46.924  94.7130  0.00  0.00     0.000 O
ATOM      7   O  Z9H D   1      64.770  51.078  95.0810  0.00  0.00     0.000 O
ATOM      8   C  Z9H D   1      63.737  52.035  94.7900  0.00  0.00     0.000 C
ATOM      9   O  Z9H D   1      65.710  49.761  92.7540  0.00  0.00     0.000 O
ATOM     10   C  Z9H D   1      66.752  50.740  92.7050  0.00  0.00     0.000 C
ENDROOT
BRANCH 2 11
ATOM     11   O  Z9H D   1      62.663  49.369  96.3020  0.00  0.00     0.000 O
ATOM     12   O  Z9H D   1      61.895  49.603  98.0080  0.00  0.00     0.000 OA
ATOM     13   S  Z9H D   1      63.250  49.233  97.7720  0.00  0.00     0.000 S
ATOM     14   O  Z9H D   1      64.188  50.298  97.9840  0.00  0.00     0.000 OA
ATOM     15   O  Z9H D   1      63.465  47.851  98.1350  0.00  0.00     0.000 O
ENDBRANCH 2 11
BRANCH 5 16
ATOM     16   C  Z9H D   1      67.097  46.875  93.1440  0.00  0.00     0.000 C
ATOM     17   S  Z9H D   1      68.019  45.626  91.8680  0.00  0.00     0.000 S
ATOM     18   O  Z9H D   1      66.817  46.699  91.7760  0.00  0.00     0.000 O
ATOM     19   O  Z9H D   1      67.727  44.459  92.6500  0.00  0.00     0.000 O
ATOM     20   O  Z9H D   1      69.272  46.295  91.9060  0.00  0.00     0.000 OA
ATOM     21   O  Z9H D   1      67.657  45.453  90.4920  0.00  0.00     0.000 OA
ENDBRANCH 5 16
BRANCH 1 22
ATOM     22  O4  GU1 D   2      62.701  47.473  94.4630  0.00  0.00     0.000 O
BRANCH 22 26
ATOM     23  C1  GU1 D   2      59.724  45.077  92.9240  0.00  0.00     0.000 C
ATOM     24  C2  GU1 D   2      59.965  44.918  94.4170  0.00  0.00     0.000 C
ATOM     25  C3  GU1 D   2      60.772  46.081  94.9170  0.00  0.00     0.000 C
ATOM     26  C4  GU1 D   2      62.041  46.255  94.0960  0.00  0.00     0.000 C
ATOM     27  C5  GU1 D   2      61.699  46.300  92.6040  0.00  0.00     0.000 C
ATOM     28  O5  GU1 D   2      60.963  45.139  92.2270  0.00  0.00     0.000 O
ATOM     29   O  GU1 D   2      58.747  44.874  95.1510  0.00  0.00     0.000 O
ATOM     30   C  GU1 D   2      58.301  43.558  95.4470  0.00  0.00     0.000 C
ATOM     31   C  GU1 D   2      60.366  46.529  97.2470  0.00  0.00     0.000 C
ATOM     32   O  GU1 D   2      61.138  45.826  96.2770  0.00  0.00     0.000 O
BRANCH 27 33
ATOM     33   C  GU1 D   2      62.948  46.351  91.7580  0.00  0.00     0.000 C
ATOM     34   O  GU1 D   2      63.652  45.363  91.7060  0.00  0.00     0.000 OA
ATOM     35   O  GU1 D   2      63.238  47.363  91.1390  0.00  0.00     0.000 O
ENDBRANCH 27 33
BRANCH 23 36
ATOM     36  O4  GU6 D   3      59.188  43.979  92.1590  0.00  0.00     0.000 O
BRANCH 36 40
ATOM     37  C1  GU6 D   3      58.753  40.703  89.7570  0.00  0.00     0.000 C
ATOM     38  C2  GU6 D   3      57.530  41.611  89.7920  0.00  0.00     0.000 C
ATOM     39  C3  GU6 D   3      57.883  42.907  90.4730  0.00  0.00     0.000 C
ATOM     40  C4  GU6 D   3      59.182  42.989  91.1500  0.00  0.00     0.000 C
ATOM     41  C5  GU6 D   3      59.498  41.623  91.8440  0.00  0.00     0.000 C
ATOM     42  O5  GU6 D   3      59.167  40.450  91.0910  0.00  0.00     0.000 O
BRANCH 38 43
ATOM     43   O  GU6 D   3      57.062  41.866  88.4820  0.00  0.00     0.000 O
ATOM     44   S  GU6 D   3      55.598  41.512  88.2560  0.00  0.00     0.000 S
ATOM     45   O  GU6 D   3      55.500  40.064  88.0020  0.00  0.00     0.000 OA
ATOM     46   O  GU6 D   3      54.840  41.847  89.4750  0.00  0.00     0.000 O
ATOM     47   O  GU6 D   3      55.096  42.286  87.1260  0.00  0.00     0.000 OA
ENDBRANCH 38 43
BRANCH 39 48
ATOM     48   O  GU6 D   3      57.103  44.070  90.2710  0.00  0.00     0.000 O
ATOM     49   S  GU6 D   3      57.328  45.250  89.3270  0.00  0.00     0.000 S
ATOM     50   O  GU6 D   3      57.477  44.772  87.9470  0.00  0.00     0.000 OA
ATOM     51   O  GU6 D   3      56.101  46.042  89.4850  0.00  0.00     0.000 OA
ATOM     52   O  GU6 D   3      58.548  45.974  89.7470  0.00  0.00     0.000 O
ENDBRANCH 39 48
BRANCH 41 53
ATOM     53   C  GU6 D   3      60.117  41.364  93.1900  0.00  0.00     0.000 C
ATOM     54   O  GU6 D   3      61.385  41.907  92.9250  0.00  0.00     0.000 O
ATOM     55   S  GU6 D   3      62.508  41.807  93.9660  0.00  0.00     0.000 S
ATOM     56   O  GU6 D   3      62.841  40.370  94.0980  0.00  0.00     0.000 O
ATOM     57   O  GU6 D   3      63.668  42.567  93.4770  0.00  0.00     0.000 OA
ATOM     58   O  GU6 D   3      61.978  42.350  95.2370  0.00  0.00     0.000 OA
ENDBRANCH 41 53
BRANCH 37 59
ATOM     59  O4  Z9K D   4      59.943  40.945  88.9770  0.00  0.00     0.000 O
BRANCH 59 63
ATOM     60  C1  Z9K D   4      62.242  40.996  85.7900  0.00  0.00     0.000 C
ATOM     61  C2  Z9K D   4      61.073  40.096  85.3030  0.00  0.00     0.000 C
ATOM     62  C3  Z9K D   4      60.062  40.229  86.5240  0.00  0.00     0.000 C
ATOM     63  C4  Z9K D   4      60.614  40.103  87.9950  0.00  0.00     0.000 C
ATOM     64  C5  Z9K D   4      62.091  40.477  88.1950  0.00  0.00     0.000 C
ATOM     65  O5  Z9K D   4      62.299  41.514  87.2010  0.00  0.00     0.000 O
ATOM     66   O  Z9K D   4      58.967  39.297  86.4590  0.00  0.00     0.000 O
ATOM     67   C  Z9K D   4      57.868  39.739  85.6790  0.00  0.00     0.000 C
BRANCH 61 68
ATOM     68   O  Z9K D   4      60.471  40.753  84.2210  0.00  0.00     0.000 O
ATOM     69   O  Z9K D   4      60.381  38.212  83.9290  0.00  0.00     0.000 OA
ATOM     70   S  Z9K D   4      61.048  39.411  83.5200  0.00  0.00     0.000 S
ATOM     71   O  Z9K D   4      62.458  39.558  83.3230  0.00  0.00     0.000 OA
ATOM     72   O  Z9K D   4      60.350  40.042  82.4470  0.00  0.00     0.000 OA
ENDBRANCH 61 68
BRANCH 64 73
ATOM     73   C  Z9K D   4      62.379  40.801  89.6770  0.00  0.00     0.000 C
ATOM     74   O  Z9K D   4      62.405  39.889  90.5540  0.00  0.00     0.000 O
ATOM     75   O  Z9K D   4      62.603  41.973  90.0660  0.00  0.00     0.000 OA
ENDBRANCH 64 73
BRANCH 60 76
ATOM     76  O4  Z9L D   5      63.656  40.751  85.7020  0.00  0.00     0.000 O
BRANCH 76 80
ATOM     77  C1  Z9L D   5      67.201  42.427  84.9310  0.00  0.00     0.000 C
ATOM     78  C2  Z9L D   5      67.219  41.977  86.4710  0.00  0.00     0.000 C
ATOM     79  C3  Z9L D   5      65.945  40.883  86.6720  0.00  0.00     0.000 C
ATOM     80  C4  Z9L D   5      64.756  41.618  85.7990  0.00  0.00     0.000 C
ATOM     81  C5  Z9L D   5      64.785  42.285  84.3310  0.00  0.00     0.000 C
ATOM     82  O5  Z9L D   5      66.022  43.007  84.2400  0.00  0.00     0.000 O
ATOM     83   C  Z9L D   5      67.781  41.604  82.7220  0.00  0.00     0.000 C
ATOM     84   C  Z9L D   5      67.781  41.604  82.7220  0.00  0.00     0.000 C
BRANCH 78 85
ATOM     85   O  Z9L D   5      68.424  41.325  86.7170  0.00  0.00     0.000 O
ATOM     86   O  Z9L D   5      69.847  42.009  87.8200  0.00  0.00     0.000 OA
ATOM     87   S  Z9L D   5      68.560  42.615  87.6660  0.00  0.00     0.000 S
ATOM     88   O  Z9L D   5      67.918  42.463  88.9480  0.00  0.00     0.000 OA
ATOM     89   O  Z9L D   5      68.806  43.856  87.0160  0.00  0.00     0.000 OA
ENDBRANCH 78 85
BRANCH 79 90
ATOM     90   O  Z9L D   5      65.439  40.926  87.9680  0.00  0.00     0.000 O
ATOM     91   S  Z9L D   5      65.856  39.390  87.8950  0.00  0.00     0.000 S
ATOM     92   O  Z9L D   5      67.194  38.970  87.5730  0.00  0.00     0.000 OA
ATOM     93   O  Z9L D   5      64.715  38.605  87.4940  0.00  0.00     0.000 O
ATOM     94   O  Z9L D   5      65.789  39.539  89.3120  0.00  0.00     0.000 OA
ENDBRANCH 79 90
BRANCH 81 95
ATOM     95   C  Z9L D   5      63.381  43.033  83.7990  0.00  0.00     0.000 C
ATOM     96   S  Z9L D   5      62.424  44.772  83.6430  0.00  0.00     0.000 S
ATOM     97   O  Z9L D   5      63.375  44.102  84.7050  0.00  0.00     0.000 O
ATOM     98   O  Z9L D   5      61.158  44.092  83.7320  0.00  0.00     0.000 OA
ATOM     99   O  Z9L D   5      63.017  45.072  82.3840  0.00  0.00     0.000 OA
ATOM    100   O  Z9L D   5      62.442  45.833  84.6200  0.00  0.00     0.000 O
ENDBRANCH 81 95
ENDBRANCH 76 80
ENDBRANCH 60 76
ENDBRANCH 59 63
ENDBRANCH 37 59
ENDBRANCH 36 40
ENDBRANCH 23 36
ENDBRANCH 22 26
ENDBRANCH 1 22
TORSDOF 19
ENDMDL
MODEL 83
REMARK VINA RESULT:      -0.4    105.234    111.834
ROOT
ATOM      1  C1  Z9H D   1      75.844 100.987  53.2750  0.00  0.00     0.000 C
ATOM      2  C2  Z9H D   1      75.970  99.460  53.0600  0.00  0.00     0.000 C
ATOM      3  C3  Z9H D   1      75.398  98.994  54.4330  0.00  0.00     0.000 C
ATOM      4  C4  Z9H D   1      76.038  99.688  55.7070  0.00  0.00     0.000 C
ATOM      5  C5  Z9H D   1      76.248 101.250  55.8260  0.00  0.00     0.000 C
ATOM      6  O5  Z9H D   1      76.446 101.620  54.4380  0.00  0.00     0.000 O
ATOM      7   O  Z9H D   1      75.442  97.572  54.5670  0.00  0.00     0.000 O
ATOM      8   C  Z9H D   1      74.211  96.888  54.2800  0.00  0.00     0.000 C
ATOM      9   O  Z9H D   1      75.230  99.283  56.8170  0.00  0.00     0.000 O
ATOM     10   C  Z9H D   1      75.750  98.204  57.5990  0.00  0.00     0.000 C
ENDROOT
BRANCH 2 11
ATOM     11   O  Z9H D   1      74.946  99.210  52.1330  0.00  0.00     0.000 O
ATOM     12   O  Z9H D   1      75.239  98.671  50.3490  0.00  0.00     0.000 OA
ATOM     13   S  Z9H D   1      76.267  98.882  51.3130  0.00  0.00     0.000 S
ATOM     14   O  Z9H D   1      76.831  97.670  51.8340  0.00  0.00     0.000 OA
ATOM     15   O  Z9H D   1      77.013 100.079  51.0010  0.00  0.00     0.000 O
ENDBRANCH 2 11
BRANCH 5 16
ATOM     16   C  Z9H D   1      77.320 101.732  57.0170  0.00  0.00     0.000 C
ATOM     17   S  Z9H D   1      77.691 103.140  58.4030  0.00  0.00     0.000 S
ATOM     18   O  Z9H D   1      76.389 102.344  57.8770  0.00  0.00     0.000 O
ATOM     19   O  Z9H D   1      78.260 104.056  57.4560  0.00  0.00     0.000 O
ATOM     20   O  Z9H D   1      78.473 102.301  59.2420  0.00  0.00     0.000 OA
ATOM     21   O  Z9H D   1      76.690 103.764  59.2180  0.00  0.00     0.000 OA
ENDBRANCH 5 16
BRANCH 1 22
ATOM     22  O4  GU1 D   2      74.461 101.485  53.3860  0.00  0.00     0.000 O
BRANCH 22 26
ATOM     23  C1  GU1 D   2      71.928 104.619  52.5290  0.00  0.00     0.000 C
ATOM     24  C2  GU1 D   2      73.004 104.361  51.4840  0.00  0.00     0.000 C
ATOM     25  C3  GU1 D   2      73.597 103.000  51.7060  0.00  0.00     0.000 C
ATOM     26  C4  GU1 D   2      74.073 102.842  53.1430  0.00  0.00     0.000 C
ATOM     27  C5  GU1 D   2      72.950 103.224  54.1120  0.00  0.00     0.000 C
ATOM     28  O5  GU1 D   2      72.481 104.541  53.8380  0.00  0.00     0.000 O
ATOM     29   O  GU1 D   2      72.483 104.409  50.1610  0.00  0.00     0.000 O
ATOM     30   C  GU1 D   2      72.663 105.662  49.5170  0.00  0.00     0.000 C
ATOM     31   C  GU1 D   2      74.476 102.054  49.6750  0.00  0.00     0.000 C
ATOM     32   O  GU1 D   2      74.721 102.849  50.8330  0.00  0.00     0.000 O
BRANCH 27 33
ATOM     33   C  GU1 D   2      73.430 103.193  55.5440  0.00  0.00     0.000 C
ATOM     34   O  GU1 D   2      74.212 104.047  55.9100  0.00  0.00     0.000 OA
ATOM     35   O  GU1 D   2      73.035 102.330  56.3120  0.00  0.00     0.000 O
ENDBRANCH 27 33
BRANCH 23 36
ATOM     36  O4  GU6 D   3      71.379 105.942  52.6870  0.00  0.00     0.000 O
BRANCH 36 40
ATOM     37  C1  GU6 D   3      70.583 109.741  53.9610  0.00  0.00     0.000 C
ATOM     38  C2  GU6 D   3      69.403 109.056  53.2830  0.00  0.00     0.000 C
ATOM     39  C3  GU6 D   3      69.706 107.592  53.1000  0.00  0.00     0.000 C
ATOM     40  C4  GU6 D   3      71.075 107.141  53.3710  0.00  0.00     0.000 C
ATOM     41  C5  GU6 D   3      72.090 108.224  52.8750  0.00  0.00     0.000 C
ATOM     42  O5  GU6 D   3      71.730 109.584  53.1410  0.00  0.00     0.000 O
BRANCH 38 43
ATOM     43   O  GU6 D   3      68.226 109.214  54.0520  0.00  0.00     0.000 O
ATOM     44   S  GU6 D   3      67.059 109.836  53.2970  0.00  0.00     0.000 S
ATOM     45   O  GU6 D   3      67.237 111.298  53.2830  0.00  0.00     0.000 OA
ATOM     46   O  GU6 D   3      67.069 109.327  51.9140  0.00  0.00     0.000 O
ATOM     47   O  GU6 D   3      65.815 109.458  53.9600  0.00  0.00     0.000 OA
ENDBRANCH 38 43
BRANCH 39 48
ATOM     48   O  GU6 D   3      68.665 106.654  52.9050  0.00  0.00     0.000 O
ATOM     49   S  GU6 D   3      67.979 105.728  53.9080  0.00  0.00     0.000 S
ATOM     50   O  GU6 D   3      67.444 106.506  55.0310  0.00  0.00     0.000 OA
ATOM     51   O  GU6 D   3      66.898 105.124  53.1170  0.00  0.00     0.000 OA
ATOM     52   O  GU6 D   3      68.964 104.740  54.4010  0.00  0.00     0.000 O
ENDBRANCH 39 48
BRANCH 41 53
ATOM     53   C  GU6 D   3      73.406 108.037  52.1690  0.00  0.00     0.000 C
ATOM     54   O  GU6 D   3      74.092 107.394  53.2120  0.00  0.00     0.000 O
ATOM     55   S  GU6 D   3      75.583 107.057  53.0710  0.00  0.00     0.000 S
ATOM     56   O  GU6 D   3      76.309 108.347  53.0120  0.00  0.00     0.000 O
ATOM     57   O  GU6 D   3      76.000 106.279  54.2470  0.00  0.00     0.000 OA
ATOM     58   O  GU6 D   3      75.744 106.297  51.8110  0.00  0.00     0.000 OA
ENDBRANCH 41 53
BRANCH 37 59
ATOM     59  O4  Z9K D   4      70.997 109.519  55.3260  0.00  0.00     0.000 O
BRANCH 59 63
ATOM     60  C1  Z9K D   4      70.951 109.920  59.2350  0.00  0.00     0.000 C
ATOM     61  C2  Z9K D   4      70.032 111.095  58.8010  0.00  0.00     0.000 C
ATOM     62  C3  Z9K D   4      69.905 110.818  57.2400  0.00  0.00     0.000 C
ATOM     63  C4  Z9K D   4      71.201 110.465  56.4160  0.00  0.00     0.000 C
ATOM     64  C5  Z9K D   4      72.347 109.814  57.2050  0.00  0.00     0.000 C
ATOM     65  O5  Z9K D   4      71.645 109.051  58.2220  0.00  0.00     0.000 O
ATOM     66   O  Z9K D   4      69.291 111.901  56.5190  0.00  0.00     0.000 O
ATOM     67   C  Z9K D   4      67.873 111.864  56.5010  0.00  0.00     0.000 C
BRANCH 61 68
ATOM     68   O  Z9K D   4      68.765 110.850  59.3480  0.00  0.00     0.000 O
ATOM     69   O  Z9K D   4      69.264 113.358  59.2560  0.00  0.00     0.000 OA
ATOM     70   S  Z9K D   4      69.202 112.210  60.1110  0.00  0.00     0.000 S
ATOM     71   O  Z9K D   4      70.136 111.886  61.1450  0.00  0.00     0.000 OA
ATOM     72   O  Z9K D   4      67.873 112.003  60.5890  0.00  0.00     0.000 OA
ENDBRANCH 61 68
BRANCH 64 73
ATOM     73   C  Z9K D   4      73.315 109.074  56.2590  0.00  0.00     0.000 C
ATOM     74   O  Z9K D   4      74.100 109.709  55.4960  0.00  0.00     0.000 O
ATOM     75   O  Z9K D   4      73.366 107.820  56.2130  0.00  0.00     0.000 OA
ENDBRANCH 64 73
BRANCH 60 76
ATOM     76  O4  Z9L D   5      72.063 109.944  60.1460  0.00  0.00     0.000 O
BRANCH 76 80
ATOM     77  C1  Z9L D   5      73.980 107.889  62.9870  0.00  0.00     0.000 C
ATOM     78  C2  Z9L D   5      74.989 108.030  61.7490  0.00  0.00     0.000 C
ATOM     79  C3  Z9L D   5      74.376 109.260  60.7620  0.00  0.00     0.000 C
ATOM     80  C4  Z9L D   5      72.767 108.906  60.7790  0.00  0.00     0.000 C
ATOM     81  C5  Z9L D   5      71.783 108.533  62.0000  0.00  0.00     0.000 C
ATOM     82  O5  Z9L D   5      72.520 107.650  62.8580  0.00  0.00     0.000 O
ATOM     83   C  Z9L D   5      73.362 109.008  65.0510  0.00  0.00     0.000 C
ATOM     84   C  Z9L D   5      73.362 109.008  65.0510  0.00  0.00     0.000 C
BRANCH 78 85
ATOM     85   O  Z9L D   5      76.230 108.419  62.2450  0.00  0.00     0.000 O
ATOM     86   O  Z9L D   5      77.809 107.316  62.2630  0.00  0.00     0.000 OA
ATOM     87   S  Z9L D   5      76.568 106.968  61.6430  0.00  0.00     0.000 S
ATOM     88   O  Z9L D   5      76.842 106.975  60.2270  0.00  0.00     0.000 OA
ATOM     89   O  Z9L D   5      76.083 105.849  62.3760  0.00  0.00     0.000 OA
ENDBRANCH 78 85
BRANCH 79 90
ATOM     90   O  Z9L D   5      74.717 109.056  59.4270  0.00  0.00     0.000 O
ATOM     91   S  Z9L D   5      75.355 110.498  59.6480  0.00  0.00     0.000 S
ATOM     92   O  Z9L D   5      76.316 110.765  60.6860  0.00  0.00     0.000 OA
ATOM     93   O  Z9L D   5      74.411 111.506  59.2350  0.00  0.00     0.000 O
ATOM     94   O  Z9L D   5      76.085 110.103  58.4870  0.00  0.00     0.000 OA
ENDBRANCH 79 90
BRANCH 81 95
ATOM     95   C  Z9L D   5      70.198 108.138  61.6170  0.00  0.00     0.000 C
ATOM     96   S  Z9L D   5      68.937 106.639  61.2610  0.00  0.00     0.000 S
ATOM     97   O  Z9L D   5      70.454 106.930  60.9530  0.00  0.00     0.000 O
ATOM     98   O  Z9L D   5      68.166 107.485  60.3870  0.00  0.00     0.000 OA
ATOM     99   O  Z9L D   5      68.601 106.493  62.6370  0.00  0.00     0.000 OA
ATOM    100   O  Z9L D   5      69.254 105.422  60.5540  0.00  0.00     0.000 O
ENDBRANCH 81 95
ENDBRANCH 76 80
ENDBRANCH 60 76
ENDBRANCH 59 63
ENDBRANCH 37 59
ENDBRANCH 36 40
ENDBRANCH 23 36
ENDBRANCH 22 26
ENDBRANCH 1 22
TORSDOF 19
ENDMDL
MODEL 84
REMARK VINA RESULT:      -0.4    109.937    116.659
ROOT
ATOM      1  C1  Z9H D   1      95.544 110.511  21.1980  0.00  0.00     0.000 C
ATOM      2  C2  Z9H D   1      94.484 111.534  20.7250  0.00  0.00     0.000 C
ATOM      3  C3  Z9H D   1      93.214 110.657  20.9470  0.00  0.00     0.000 C
ATOM      4  C4  Z9H D   1      93.273 109.205  20.3160  0.00  0.00     0.000 C
ATOM      5  C5  Z9H D   1      94.510 108.237  20.4910  0.00  0.00     0.000 C
ATOM      6  O5  Z9H D   1      95.602 109.184  20.6050  0.00  0.00     0.000 O
ATOM      7   O  Z9H D   1      92.027 111.334  20.5260  0.00  0.00     0.000 O
ATOM      8   C  Z9H D   1      91.276 111.969  21.5740  0.00  0.00     0.000 C
ATOM      9   O  Z9H D   1      92.123 108.516  20.8180  0.00  0.00     0.000 O
ATOM     10   C  Z9H D   1      91.002 108.456  19.9310  0.00  0.00     0.000 C
ENDROOT
BRANCH 2 11
ATOM     11   O  Z9H D   1      94.479 112.459  21.7820  0.00  0.00     0.000 O
ATOM     12   O  Z9H D   1      95.089 114.237  21.6360  0.00  0.00     0.000 OA
ATOM     13   S  Z9H D   1      95.044 113.304  20.5610  0.00  0.00     0.000 S
ATOM     14   O  Z9H D   1      93.970 113.535  19.6380  0.00  0.00     0.000 OA
ATOM     15   O  Z9H D   1      96.379 112.890  20.1970  0.00  0.00     0.000 O
ENDBRANCH 2 11
BRANCH 5 16
ATOM     16   C  Z9H D   1      94.572 106.963  19.4070  0.00  0.00     0.000 C
ATOM     17   S  Z9H D   1      95.080 105.031  19.1900  0.00  0.00     0.000 S
ATOM     18   O  Z9H D   1      94.352 105.919  20.3240  0.00  0.00     0.000 O
ATOM     19   O  Z9H D   1      96.472 105.319  19.0000  0.00  0.00     0.000 O
ATOM     20   O  Z9H D   1      94.184 104.775  18.1170  0.00  0.00     0.000 OA
ATOM     21   O  Z9H D   1      94.873 104.018  20.1830  0.00  0.00     0.000 OA
ENDBRANCH 5 16
BRANCH 1 22
ATOM     22  O4  GU1 D   2      95.473 110.162  22.6280  0.00  0.00     0.000 O
BRANCH 22 26
ATOM     23  C1  GU1 D   2      97.675 109.177  25.9670  0.00  0.00     0.000 C
ATOM     24  C2  GU1 D   2      98.344 110.171  25.0300  0.00  0.00     0.000 C
ATOM     25  C3  GU1 D   2      97.320 110.732  24.0860  0.00  0.00     0.000 C
ATOM     26  C4  GU1 D   2      96.566 109.617  23.3770  0.00  0.00     0.000 C
ATOM     27  C5  GU1 D   2      96.022 108.617  24.4020  0.00  0.00     0.000 C
ATOM     28  O5  GU1 D   2      97.076 108.122  25.2230  0.00  0.00     0.000 O
ATOM     29   O  GU1 D   2      98.937 111.254  25.7380  0.00  0.00     0.000 O
ATOM     30   C  GU1 D   2     100.328 111.091  25.9770  0.00  0.00     0.000 C
ATOM     31   C  GU1 D   2      97.913 112.932  23.3110  0.00  0.00     0.000 C
ATOM     32   O  GU1 D   2      97.996 111.524  23.1050  0.00  0.00     0.000 O
BRANCH 27 33
ATOM     33   C  GU1 D   2      95.372 107.436  23.7210  0.00  0.00     0.000 C
ATOM     34   O  GU1 D   2      96.083 106.640  23.1430  0.00  0.00     0.000 OA
ATOM     35   O  GU1 D   2      94.161 107.287  23.7580  0.00  0.00     0.000 O
ENDBRANCH 27 33
BRANCH 23 36
ATOM     36  O4  GU6 D   3      98.479 108.320  26.8020  0.00  0.00     0.000 O
BRANCH 36 40
ATOM     37  C1  GU6 D   3     100.583 105.166  28.3260  0.00  0.00     0.000 C
ATOM     38  C2  GU6 D   3     100.055 106.127  29.3840  0.00  0.00     0.000 C
ATOM     39  C3  GU6 D   3      99.079 107.086  28.7540  0.00  0.00     0.000 C
ATOM     40  C4  GU6 D   3      98.978 107.091  27.2910  0.00  0.00     0.000 C
ATOM     41  C5  GU6 D   3     100.398 106.889  26.6670  0.00  0.00     0.000 C
ATOM     42  O5  GU6 D   3     101.231 105.920  27.3130  0.00  0.00     0.000 O
BRANCH 38 43
ATOM     43   O  GU6 D   3      99.426 105.416  30.4320  0.00  0.00     0.000 O
ATOM     44   S  GU6 D   3      99.980 105.717  31.8190  0.00  0.00     0.000 S
ATOM     45   O  GU6 D   3     101.201 104.917  32.0190  0.00  0.00     0.000 OA
ATOM     46   O  GU6 D   3     100.317 107.150  31.8900  0.00  0.00     0.000 O
ATOM     47   O  GU6 D   3      98.963 105.392  32.8130  0.00  0.00     0.000 OA
ENDBRANCH 38 43
BRANCH 39 48
ATOM     48   O  GU6 D   3      98.134 107.783  29.5430  0.00  0.00     0.000 O
ATOM     49   S  GU6 D   3      96.663 107.471  29.8140  0.00  0.00     0.000 S
ATOM     50   O  GU6 D   3      96.525 106.113  30.3520  0.00  0.00     0.000 OA
ATOM     51   O  GU6 D   3      96.289 108.479  30.8160  0.00  0.00     0.000 OA
ATOM     52   O  GU6 D   3      95.905 107.596  28.5500  0.00  0.00     0.000 O
ENDBRANCH 39 48
BRANCH 41 53
ATOM     53   C  GU6 D   3     101.011 107.562  25.4690  0.00  0.00     0.000 C
ATOM     54   O  GU6 D   3     100.149 107.036  24.4930  0.00  0.00     0.000 O
ATOM     55   S  GU6 D   3     100.394 107.318  23.0050  0.00  0.00     0.000 S
ATOM     56   O  GU6 D   3     101.664 106.645  22.6460  0.00  0.00     0.000 O
ATOM     57   O  GU6 D   3      99.275 106.760  22.2320  0.00  0.00     0.000 OA
ATOM     58   O  GU6 D   3     100.506 108.785  22.8480  0.00  0.00     0.000 OA
ENDBRANCH 41 53
BRANCH 37 59
ATOM     59  O4  Z9K D   4      99.800 104.148  27.6680  0.00  0.00     0.000 O
BRANCH 59 63
ATOM     60  C1  Z9K D   4      98.021 100.671  27.2280  0.00  0.00     0.000 C
ATOM     61  C2  Z9K D   4      98.921 100.394  28.4640  0.00  0.00     0.000 C
ATOM     62  C3  Z9K D   4      99.496 101.849  28.7500  0.00  0.00     0.000 C
ATOM     63  C4  Z9K D   4     100.030 102.714  27.5450  0.00  0.00     0.000 C
ATOM     64  C5  Z9K D   4      99.423 102.400  26.1690  0.00  0.00     0.000 C
ATOM     65  O5  Z9K D   4      98.072 101.985  26.4990  0.00  0.00     0.000 O
ATOM     66   O  Z9K D   4     100.564 101.860  29.7140  0.00  0.00     0.000 O
ATOM     67   C  Z9K D   4     100.134 101.914  31.0640  0.00  0.00     0.000 C
BRANCH 61 68
ATOM     68   O  Z9K D   4      98.068 100.092  29.5340  0.00  0.00     0.000 O
ATOM     69   O  Z9K D   4     100.255  98.773  29.6930  0.00  0.00     0.000 OA
ATOM     70   S  Z9K D   4      98.869  98.697  29.3400  0.00  0.00     0.000 S
ATOM     71   O  Z9K D   4      98.330  98.003  28.2110  0.00  0.00     0.000 OA
ATOM     72   O  Z9K D   4      98.065  98.432  30.4890  0.00  0.00     0.000 OA
ENDBRANCH 61 68
BRANCH 64 73
ATOM     73   C  Z9K D   4      99.620 103.585  25.1990  0.00  0.00     0.000 C
ATOM     74   O  Z9K D   4     100.758 103.858  24.7190  0.00  0.00     0.000 O
ATOM     75   O  Z9K D   4      98.662 104.316  24.8460  0.00  0.00     0.000 OA
ENDBRANCH 64 73
BRANCH 60 76
ATOM     76  O4  Z9L D   5      97.877  99.884  26.0330  0.00  0.00     0.000 O
BRANCH 76 80
ATOM     77  C1  Z9L D   5      95.301  98.678  23.2260  0.00  0.00     0.000 C
ATOM     78  C2  Z9L D   5      96.395  99.596  22.4960  0.00  0.00     0.000 C
ATOM     79  C3  Z9L D   5      97.708  99.721  23.5550  0.00  0.00     0.000 C
ATOM     80  C4  Z9L D   5      96.935  99.940  24.9930  0.00  0.00     0.000 C
ATOM     81  C5  Z9L D   5      95.677  99.167  25.6420  0.00  0.00     0.000 C
ATOM     82  O5  Z9L D   5      94.742  98.950  24.5750  0.00  0.00     0.000 O
ATOM     83   C  Z9L D   5      94.857  96.357  23.7820  0.00  0.00     0.000 C
ATOM     84   C  Z9L D   5      94.857  96.357  23.7820  0.00  0.00     0.000 C
BRANCH 78 85
ATOM     85   O  Z9L D   5      96.803  98.943  21.3370  0.00  0.00     0.000 O
ATOM     86   O  Z9L D   5      96.411  99.523  19.5430  0.00  0.00     0.000 OA
ATOM     87   S  Z9L D   5      96.102 100.256  20.7330  0.00  0.00     0.000 S
ATOM     88   O  Z9L D   5      96.965 101.411  20.6950  0.00  0.00     0.000 OA
ATOM     89   O  Z9L D   5      94.681 100.299  20.7880  0.00  0.00     0.000 OA
ENDBRANCH 78 85
BRANCH 79 90
ATOM     90   O  Z9L D   5      98.382 100.927  23.3870  0.00  0.00     0.000 O
ATOM     91   S  Z9L D   5      99.581  99.912  23.1240  0.00  0.00     0.000 S
ATOM     92   O  Z9L D   5      99.516  98.887  22.1160  0.00  0.00     0.000 OA
ATOM     93   O  Z9L D   5     100.304  99.699  24.3530  0.00  0.00     0.000 O
ATOM     94   O  Z9L D   5     100.131 101.076  22.5080  0.00  0.00     0.000 OA
ENDBRANCH 79 90
BRANCH 81 95
ATOM     95   C  Z9L D   5      95.097  99.738  27.1090  0.00  0.00     0.000 C
ATOM     96   S  Z9L D   5      93.729 100.896  27.9770  0.00  0.00     0.000 S
ATOM     97   O  Z9L D   5      94.577 100.957  26.6520  0.00  0.00     0.000 O
ATOM     98   O  Z9L D   5      94.636 101.166  29.0630  0.00  0.00     0.000 OA
ATOM     99   O  Z9L D   5      92.775  99.841  28.0530  0.00  0.00     0.000 OA
ATOM    100   O  Z9L D   5      93.244 102.153  27.4660  0.00  0.00     0.000 O
ENDBRANCH 81 95
ENDBRANCH 76 80
ENDBRANCH 60 76
ENDBRANCH 59 63
ENDBRANCH 37 59
ENDBRANCH 36 40
ENDBRANCH 23 36
ENDBRANCH 22 26
ENDBRANCH 1 22
TORSDOF 19
ENDMDL
MODEL 85
REMARK VINA RESULT:      -0.4    178.948    184.680
ROOT
ATOM      1  C1  Z9H D   1     126.820 132.719  98.6830  0.00  0.00     0.000 C
ATOM      2  C2  Z9H D   1     125.451 133.095  99.3000  0.00  0.00     0.000 C
ATOM      3  C3  Z9H D   1     125.879 133.108 100.7990  0.00  0.00     0.000 C
ATOM      4  C4  Z9H D   1     126.662 131.822 101.2930  0.00  0.00     0.000 C
ATOM      5  C5  Z9H D   1     127.873 131.189 100.4970  0.00  0.00     0.000 C
ATOM      6  O5  Z9H D   1     127.527 131.530  99.1310  0.00  0.00     0.000 O
ATOM      7   O  Z9H D   1     124.770 133.375 101.6610  0.00  0.00     0.000 O
ATOM      8   C  Z9H D   1     124.649 134.737 102.1040  0.00  0.00     0.000 C
ATOM      9   O  Z9H D   1     127.138 132.137 102.6060  0.00  0.00     0.000 O
ATOM     10   C  Z9H D   1     126.354 131.623 103.6870  0.00  0.00     0.000 C
ENDROOT
BRANCH 2 11
ATOM     11   O  Z9H D   1     125.331 134.447  98.9420  0.00  0.00     0.000 O
ATOM     12   O  Z9H D   1     124.050 135.113  97.7280  0.00  0.00     0.000 OA
ATOM     13   S  Z9H D   1     124.152 133.752  98.1360  0.00  0.00     0.000 S
ATOM     14   O  Z9H D   1     123.141 133.350  99.0720  0.00  0.00     0.000 OA
ATOM     15   O  Z9H D   1     124.654 132.938  97.0530  0.00  0.00     0.000 O
ENDBRANCH 2 11
BRANCH 5 16
ATOM     16   C  Z9H D   1     128.264 129.621 100.9310  0.00  0.00     0.000 C
ATOM     17   S  Z9H D   1     129.787 128.344 101.2300  0.00  0.00     0.000 S
ATOM     18   O  Z9H D   1     129.492 129.897 101.5610  0.00  0.00     0.000 O
ATOM     19   O  Z9H D   1     129.933 128.043  99.8350  0.00  0.00     0.000 O
ATOM     20   O  Z9H D   1     129.085 127.507 102.1390  0.00  0.00     0.000 OA
ATOM     21   O  Z9H D   1     131.038 128.697 101.8360  0.00  0.00     0.000 OA
ENDBRANCH 5 16
BRANCH 1 22
ATOM     22  O4  GU1 D   2     127.873 133.736  98.8490  0.00  0.00     0.000 O
BRANCH 22 26
ATOM     23  C1  GU1 D   2     131.157 135.503  97.0980  0.00  0.00     0.000 C
ATOM     24  C2  GU1 D   2     130.054 135.104  96.1310  0.00  0.00     0.000 C
ATOM     25  C3  GU1 D   2     128.791 134.839  96.8980  0.00  0.00     0.000 C
ATOM     26  C4  GU1 D   2     129.034 133.834  98.0150  0.00  0.00     0.000 C
ATOM     27  C5  GU1 D   2     130.228 134.276  98.8670  0.00  0.00     0.000 C
ATOM     28  O5  GU1 D   2     131.379 134.468  98.0490  0.00  0.00     0.000 O
ATOM     29   O  GU1 D   2     129.788 136.125  95.1760  0.00  0.00     0.000 O
ATOM     30   C  GU1 D   2     130.452 135.938  93.9340  0.00  0.00     0.000 C
ATOM     31   C  GU1 D   2     126.824 135.219  95.5640  0.00  0.00     0.000 C
ATOM     32   O  GU1 D   2     127.820 134.296  95.9980  0.00  0.00     0.000 O
BRANCH 27 33
ATOM     33   C  GU1 D   2     130.569 133.238  99.9090  0.00  0.00     0.000 C
ATOM     34   O  GU1 D   2     130.345 133.494 101.0750  0.00  0.00     0.000 OA
ATOM     35   O  GU1 D   2     131.054 132.165  99.5830  0.00  0.00     0.000 O
ENDBRANCH 27 33
BRANCH 23 36
ATOM     36  O4  GU6 D   3     132.524 135.571  96.6450  0.00  0.00     0.000 O
BRANCH 36 40
ATOM     37  C1  GU6 D   3     136.431 134.726  95.7990  0.00  0.00     0.000 C
ATOM     38  C2  GU6 D   3     136.132 136.216  95.9170  0.00  0.00     0.000 C
ATOM     39  C3  GU6 D   3     134.753 136.409  96.4920  0.00  0.00     0.000 C
ATOM     40  C4  GU6 D   3     133.894 135.226  96.6170  0.00  0.00     0.000 C
ATOM     41  C5  GU6 D   3     134.109 134.292  95.3810  0.00  0.00     0.000 C
ATOM     42  O5  GU6 D   3     135.464 134.137  94.9430  0.00  0.00     0.000 O
BRANCH 38 43
ATOM     43   O  GU6 D   3     137.091 136.852  96.7390  0.00  0.00     0.000 O
ATOM     44   S  GU6 D   3     137.802 138.028  96.0820  0.00  0.00     0.000 S
ATOM     45   O  GU6 D   3     138.886 137.505  95.2340  0.00  0.00     0.000 OA
ATOM     46   O  GU6 D   3     136.831 138.756  95.2440  0.00  0.00     0.000 O
ATOM     47   O  GU6 D   3     138.320 138.907  97.1260  0.00  0.00     0.000 OA
ENDBRANCH 38 43
BRANCH 39 48
ATOM     48   O  GU6 D   3     134.385 137.632  97.1010  0.00  0.00     0.000 O
ATOM     49   S  GU6 D   3     134.353 138.021  98.5790  0.00  0.00     0.000 S
ATOM     50   O  GU6 D   3     135.667 137.789  99.1910  0.00  0.00     0.000 OA
ATOM     51   O  GU6 D   3     134.031 139.454  98.5390  0.00  0.00     0.000 OA
ATOM     52   O  GU6 D   3     133.324 137.209  99.2670  0.00  0.00     0.000 O
ENDBRANCH 39 48
BRANCH 41 53
ATOM     53   C  GU6 D   3     133.090 133.515  94.5920  0.00  0.00     0.000 C
ATOM     54   O  GU6 D   3     132.693 132.632  95.6090  0.00  0.00     0.000 O
ATOM     55   S  GU6 D   3     131.705 131.496  95.3120  0.00  0.00     0.000 S
ATOM     56   O  GU6 D   3     132.390 130.565  94.3860  0.00  0.00     0.000 O
ATOM     57   O  GU6 D   3     131.373 130.822  96.5760  0.00  0.00     0.000 OA
ATOM     58   O  GU6 D   3     130.517 132.104  94.6730  0.00  0.00     0.000 OA
ENDBRANCH 41 53
BRANCH 37 59
ATOM     59  O4  Z9K D   4     136.622 133.828  96.9130  0.00  0.00     0.000 O
BRANCH 59 63
ATOM     60  C1  Z9K D   4     138.538 132.049  99.8470  0.00  0.00     0.000 C
ATOM     61  C2  Z9K D   4     139.710 132.739  99.0970  0.00  0.00     0.000 C
ATOM     62  C3  Z9K D   4     138.915 133.604  98.0250  0.00  0.00     0.000 C
ATOM     63  C4  Z9K D   4     137.732 132.937  97.2260  0.00  0.00     0.000 C
ATOM     64  C5  Z9K D   4     137.024 131.764  97.9210  0.00  0.00     0.000 C
ATOM     65  O5  Z9K D   4     137.128 132.112  99.3270  0.00  0.00     0.000 O
ATOM     66   O  Z9K D   4     139.764 134.180  97.0170  0.00  0.00     0.000 O
ATOM     67   C  Z9K D   4     140.348 135.420  97.3810  0.00  0.00     0.000 C
BRANCH 61 68
ATOM     68   O  Z9K D   4     140.288 133.652  99.9890  0.00  0.00     0.000 O
ATOM     69   O  Z9K D   4     142.049 132.635  98.4340  0.00  0.00     0.000 OA
ATOM     70   S  Z9K D   4     141.498 132.600  99.7560  0.00  0.00     0.000 S
ATOM     71   O  Z9K D   4     141.244 131.421 100.5250  0.00  0.00     0.000 OA
ATOM     72   O  Z9K D   4     142.106 133.588 100.5880  0.00  0.00     0.000 OA
ENDBRANCH 61 68
BRANCH 64 73
ATOM     73   C  Z9K D   4     135.624 131.530  97.3160  0.00  0.00     0.000 C
ATOM     74   O  Z9K D   4     135.484 131.032  96.1610  0.00  0.00     0.000 O
ATOM     75   O  Z9K D   4     134.576 131.817  97.9430  0.00  0.00     0.000 OA
ENDBRANCH 64 73
BRANCH 60 76
ATOM     76  O4  Z9L D   5     138.436 130.683 100.2840  0.00  0.00     0.000 O
BRANCH 76 80
ATOM     77  C1  Z9L D   5     137.205 128.307 103.2520  0.00  0.00     0.000 C
ATOM     78  C2  Z9L D   5     136.306 127.961 101.9700  0.00  0.00     0.000 C
ATOM     79  C3  Z9L D   5     137.106 128.606 100.6270  0.00  0.00     0.000 C
ATOM     80  C4  Z9L D   5     137.586 130.068 101.2180  0.00  0.00     0.000 C
ATOM     81  C5  Z9L D   5     138.288 130.461 102.6150  0.00  0.00     0.000 C
ATOM     82  O5  Z9L D   5     137.640 129.677 103.6280  0.00  0.00     0.000 O
ATOM     83   C  Z9L D   5     139.255 127.622 104.3560  0.00  0.00     0.000 C
ATOM     84   C  Z9L D   5     139.255 127.622 104.3560  0.00  0.00     0.000 C
BRANCH 78 85
ATOM     85   O  Z9L D   5     136.248 126.576 101.8450  0.00  0.00     0.000 O
ATOM     86   O  Z9L D   5     134.674 125.504 102.1330  0.00  0.00     0.000 OA
ATOM     87   S  Z9L D   5     134.709 126.935 102.1380  0.00  0.00     0.000 S
ATOM     88   O  Z9L D   5     133.970 127.331 100.9650  0.00  0.00     0.000 OA
ATOM     89   O  Z9L D   5     134.389 127.312 103.4720  0.00  0.00     0.000 OA
ENDBRANCH 78 85
BRANCH 79 90
ATOM     90   O  Z9L D   5     136.209 128.965  99.6260  0.00  0.00     0.000 O
ATOM     91   S  Z9L D   5     137.112 127.932  98.8170  0.00  0.00     0.000 S
ATOM     92   O  Z9L D   5     137.317 126.577  99.2590  0.00  0.00     0.000 OA
ATOM     93   O  Z9L D   5     138.150 128.650  98.1200  0.00  0.00     0.000 O
ATOM     94   O  Z9L D   5     135.960 127.932  97.9750  0.00  0.00     0.000 OA
ENDBRANCH 79 90
BRANCH 81 95
ATOM     95   C  Z9L D   5     138.550 132.091 102.9120  0.00  0.00     0.000 C
ATOM     96   S  Z9L D   5     137.818 133.722 103.7900  0.00  0.00     0.000 S
ATOM     97   O  Z9L D   5     137.209 132.486 103.0270  0.00  0.00     0.000 O
ATOM     98   O  Z9L D   5     138.453 134.550 102.7970  0.00  0.00     0.000 OA
ATOM     99   O  Z9L D   5     138.454 133.432 105.0300  0.00  0.00     0.000 OA
ATOM    100   O  Z9L D   5     136.424 134.085 103.8620  0.00  0.00     0.000 O
ENDBRANCH 81 95
ENDBRANCH 76 80
ENDBRANCH 60 76
ENDBRANCH 59 63
ENDBRANCH 37 59
ENDBRANCH 36 40
ENDBRANCH 23 36
ENDBRANCH 22 26
ENDBRANCH 1 22
TORSDOF 19
ENDMDL
MODEL 86
REMARK VINA RESULT:      -0.4    103.115    108.809
ROOT
ATOM      1  C1  Z9H D   1      67.981  74.636  83.2160  0.00  0.00     0.000 C
ATOM      2  C2  Z9H D   1      66.584  75.296  83.1330  0.00  0.00     0.000 C
ATOM      3  C3  Z9H D   1      66.988  76.729  83.5980  0.00  0.00     0.000 C
ATOM      4  C4  Z9H D   1      67.836  76.795  84.9350  0.00  0.00     0.000 C
ATOM      5  C5  Z9H D   1      69.092  75.876  85.2090  0.00  0.00     0.000 C
ATOM      6  O5  Z9H D   1      68.749  74.688  84.4510  0.00  0.00     0.000 O
ATOM      7   O  Z9H D   1      65.853  77.593  83.6860  0.00  0.00     0.000 O
ATOM      8   C  Z9H D   1      65.648  78.457  82.5550  0.00  0.00     0.000 C
ATOM      9   O  Z9H D   1      68.273  78.153  85.0510  0.00  0.00     0.000 O
ATOM     10   C  Z9H D   1      67.503  78.977  85.9320  0.00  0.00     0.000 C
ENDROOT
BRANCH 2 11
ATOM     11   O  Z9H D   1      66.393  75.402  81.7470  0.00  0.00     0.000 O
ATOM     12   O  Z9H D   1      65.102  74.427  80.7770  0.00  0.00     0.000 OA
ATOM     13   S  Z9H D   1      65.274  74.365  82.1900  0.00  0.00     0.000 S
ATOM     14   O  Z9H D   1      64.269  75.074  82.9290  0.00  0.00     0.000 OA
ATOM     15   O  Z9H D   1      65.845  73.094  82.5730  0.00  0.00     0.000 O
ENDBRANCH 2 11
BRANCH 5 16
ATOM     16   C  Z9H D   1      69.565  75.780  86.8110  0.00  0.00     0.000 C
ATOM     17   S  Z9H D   1      71.154  75.701  88.0400  0.00  0.00     0.000 S
ATOM     18   O  Z9H D   1      70.759  76.517  86.7030  0.00  0.00     0.000 O
ATOM     19   O  Z9H D   1      71.351  74.293  87.8500  0.00  0.00     0.000 O
ATOM     20   O  Z9H D   1      70.481  76.249  89.1650  0.00  0.00     0.000 OA
ATOM     21   O  Z9H D   1      72.366  76.443  87.8510  0.00  0.00     0.000 OA
ENDBRANCH 5 16
BRANCH 1 22
ATOM     22  O4  GU1 D   2      68.973  75.163  82.2620  0.00  0.00     0.000 O
BRANCH 22 26
ATOM     23  C1  GU1 D   2      72.187  74.206  79.8700  0.00  0.00     0.000 C
ATOM     24  C2  GU1 D   2      71.129  73.120  79.9840  0.00  0.00     0.000 C
ATOM     25  C3  GU1 D   2      69.867  73.711  80.5430  0.00  0.00     0.000 C
ATOM     26  C4  GU1 D   2      70.143  74.451  81.8440  0.00  0.00     0.000 C
ATOM     27  C5  GU1 D   2      71.292  75.445  81.6480  0.00  0.00     0.000 C
ATOM     28  O5  GU1 D   2      72.448  74.778  81.1470  0.00  0.00     0.000 O
ATOM     29   O  GU1 D   2      70.826  72.538  78.7210  0.00  0.00     0.000 O
ATOM     30   C  GU1 D   2      71.525  71.329  78.4620  0.00  0.00     0.000 C
ATOM     31   C  GU1 D   2      67.911  72.497  79.8420  0.00  0.00     0.000 C
ATOM     32   O  GU1 D   2      68.948  72.647  80.8080  0.00  0.00     0.000 O
BRANCH 27 33
ATOM     33   C  GU1 D   2      71.669  76.107  82.9520  0.00  0.00     0.000 C
ATOM     34   O  GU1 D   2      72.220  75.438  83.8020  0.00  0.00     0.000 OA
ATOM     35   O  GU1 D   2      71.428  77.289  83.1400  0.00  0.00     0.000 O
ENDBRANCH 27 33
BRANCH 23 36
ATOM     36  O4  GU6 D   3      73.557  73.852  79.5940  0.00  0.00     0.000 O
BRANCH 36 40
ATOM     37  C1  GU6 D   3      77.525  72.936  79.9260  0.00  0.00     0.000 C
ATOM     38  C2  GU6 D   3      77.137  73.527  78.5760  0.00  0.00     0.000 C
ATOM     39  C3  GU6 D   3      75.737  74.076  78.6490  0.00  0.00     0.000 C
ATOM     40  C4  GU6 D   3      74.945  73.768  79.8450  0.00  0.00     0.000 C
ATOM     41  C5  GU6 D   3      75.243  72.302  80.3050  0.00  0.00     0.000 C
ATOM     42  O5  GU6 D   3      76.614  71.894  80.2420  0.00  0.00     0.000 O
BRANCH 38 43
ATOM     43   O  GU6 D   3      78.039  74.551  78.2040  0.00  0.00     0.000 O
ATOM     44   S  GU6 D   3      78.694  74.350  76.8440  0.00  0.00     0.000 S
ATOM     45   O  GU6 D   3      79.827  73.421  77.0030  0.00  0.00     0.000 OA
ATOM     46   O  GU6 D   3      77.702  73.761  75.9270  0.00  0.00     0.000 O
ATOM     47   O  GU6 D   3      79.136  75.646  76.3390  0.00  0.00     0.000 OA
ENDBRANCH 38 43
BRANCH 39 48
ATOM     48   O  GU6 D   3      75.285  75.039  77.7160  0.00  0.00     0.000 O
ATOM     49   S  GU6 D   3      75.198  76.560  77.8410  0.00  0.00     0.000 S
ATOM     50   O  GU6 D   3      76.510  77.113  78.1990  0.00  0.00     0.000 OA
ATOM     51   O  GU6 D   3      74.793  76.982  76.4940  0.00  0.00     0.000 OA
ATOM     52   O  GU6 D   3      74.204  76.900  78.8830  0.00  0.00     0.000 O
ENDBRANCH 39 48
BRANCH 41 53
ATOM     53   C  GU6 D   3      74.289  71.260  80.8230  0.00  0.00     0.000 C
ATOM     54   O  GU6 D   3      73.920  71.911  82.0110  0.00  0.00     0.000 O
ATOM     55   S  GU6 D   3      73.007  71.216  83.0290  0.00  0.00     0.000 S
ATOM     56   O  GU6 D   3      73.766  70.063  83.5660  0.00  0.00     0.000 O
ATOM     57   O  GU6 D   3      72.685  72.171  84.0990  0.00  0.00     0.000 OA
ATOM     58   O  GU6 D   3      71.800  70.765  82.3000  0.00  0.00     0.000 OA
ENDBRANCH 41 53
BRANCH 37 59
ATOM     59  O4  Z9K D   4      77.742  73.697  81.1330  0.00  0.00     0.000 O
BRANCH 59 63
ATOM     60  C1  Z9K D   4      79.699  75.956  83.6850  0.00  0.00     0.000 C
ATOM     61  C2  Z9K D   4      80.846  75.510  82.7360  0.00  0.00     0.000 C
ATOM     62  C3  Z9K D   4      80.024  74.752  81.6050  0.00  0.00     0.000 C
ATOM     63  C4  Z9K D   4      78.892  73.740  82.0270  0.00  0.00     0.000 C
ATOM     64  C5  Z9K D   4      78.236  73.993  83.3930  0.00  0.00     0.000 C
ATOM     65  O5  Z9K D   4      78.297  75.438  83.5180  0.00  0.00     0.000 O
ATOM     66   O  Z9K D   4      80.858  74.014  80.6940  0.00  0.00     0.000 O
ATOM     67   C  Z9K D   4      81.370  74.781  79.6160  0.00  0.00     0.000 C
BRANCH 61 68
ATOM     68   O  Z9K D   4      81.360  76.670  82.1390  0.00  0.00     0.000 O
ATOM     69   O  Z9K D   4      83.197  74.928  82.5100  0.00  0.00     0.000 OA
ATOM     70   S  Z9K D   4      82.628  76.147  83.0000  0.00  0.00     0.000 S
ATOM     71   O  Z9K D   4      82.425  76.481  84.3770  0.00  0.00     0.000 OA
ATOM     72   O  Z9K D   4      83.168  77.274  82.3120  0.00  0.00     0.000 OA
ENDBRANCH 61 68
BRANCH 64 73
ATOM     73   C  Z9K D   4      76.861  73.298  83.4790  0.00  0.00     0.000 C
ATOM     74   O  Z9K D   4      76.767  72.040  83.5790  0.00  0.00     0.000 O
ATOM     75   O  Z9K D   4      75.788  73.949  83.4600  0.00  0.00     0.000 OA
ENDBRANCH 64 73
BRANCH 60 76
ATOM     76  O4  Z9L D   5      79.663  75.921  85.1220  0.00  0.00     0.000 O
BRANCH 76 80
ATOM     77  C1  Z9L D   5      78.444  77.878  88.3860  0.00  0.00     0.000 C
ATOM     78  C2  Z9L D   5      77.630  76.497  88.3350  0.00  0.00     0.000 C
ATOM     79  C3  Z9L D   5      78.451  75.489  87.2530  0.00  0.00     0.000 C
ATOM     80  C4  Z9L D   5      78.810  76.550  86.0440  0.00  0.00     0.000 C
ATOM     81  C5  Z9L D   5      79.420  78.042  86.0970  0.00  0.00     0.000 C
ATOM     82  O5  Z9L D   5      78.775  78.702  87.1960  0.00  0.00     0.000 O
ATOM     83   C  Z9L D   5      80.479  78.832  89.3040  0.00  0.00     0.000 C
ATOM     84   C  Z9L D   5      80.479  78.832  89.3040  0.00  0.00     0.000 C
BRANCH 78 85
ATOM     85   O  Z9L D   5      77.664  75.928  89.6040  0.00  0.00     0.000 O
ATOM     86   O  Z9L D   5      76.149  75.755  90.7810  0.00  0.00     0.000 OA
ATOM     87   S  Z9L D   5      76.094  76.224  89.4300  0.00  0.00     0.000 S
ATOM     88   O  Z9L D   5      75.386  75.197  88.7060  0.00  0.00     0.000 OA
ATOM     89   O  Z9L D   5      75.692  77.585  89.5220  0.00  0.00     0.000 OA
ENDBRANCH 78 85
BRANCH 79 90
ATOM     90   O  Z9L D   5      77.581  74.601  86.6270  0.00  0.00     0.000 O
ATOM     91   S  Z9L D   5      78.592  73.563  87.2880  0.00  0.00     0.000 S
ATOM     92   O  Z9L D   5      78.868  73.549  88.7000  0.00  0.00     0.000 OA
ATOM     93   O  Z9L D   5      79.611  73.213  86.3290  0.00  0.00     0.000 O
ATOM     94   O  Z9L D   5      77.486  72.690  87.0650  0.00  0.00     0.000 OA
ENDBRANCH 79 90
BRANCH 81 95
ATOM     95   C  Z9L D   5      79.565  78.865  84.6430  0.00  0.00     0.000 C
ATOM     96   S  Z9L D   5      78.689  80.168  83.4170  0.00  0.00     0.000 S
ATOM     97   O  Z9L D   5      78.198  79.007  84.3620  0.00  0.00     0.000 O
ATOM     98   O  Z9L D   5      79.324  79.542  82.2860  0.00  0.00     0.000 OA
ATOM     99   O  Z9L D   5      79.275  81.290  84.0690  0.00  0.00     0.000 OA
ATOM    100   O  Z9L D   5      77.273  80.256  83.1550  0.00  0.00     0.000 O
ENDBRANCH 81 95
ENDBRANCH 76 80
ENDBRANCH 60 76
ENDBRANCH 59 63
ENDBRANCH 37 59
ENDBRANCH 36 40
ENDBRANCH 23 36
ENDBRANCH 22 26
ENDBRANCH 1 22
TORSDOF 19
ENDMDL
MODEL 87
REMARK VINA RESULT:      -0.4    109.445    113.923
ROOT
ATOM      1  C1  Z9H D   1      53.479  91.597  97.1970  0.00  0.00     0.000 C
ATOM      2  C2  Z9H D   1      53.816  91.979  98.6580  0.00  0.00     0.000 C
ATOM      3  C3  Z9H D   1      55.346  91.678  98.6190  0.00  0.00     0.000 C
ATOM      4  C4  Z9H D   1      55.744  90.257  98.0420  0.00  0.00     0.000 C
ATOM      5  C5  Z9H D   1      55.147  89.670  96.7010  0.00  0.00     0.000 C
ATOM      6  O5  Z9H D   1      53.834  90.285  96.6780  0.00  0.00     0.000 O
ATOM      7   O  Z9H D   1      55.956  91.886  99.8940  0.00  0.00     0.000 O
ATOM      8   C  Z9H D   1      56.620  93.150 100.0600  0.00  0.00     0.000 C
ATOM      9   O  Z9H D   1      57.168  90.282  97.8960  0.00  0.00     0.000 O
ATOM     10   C  Z9H D   1      57.907  89.654  98.9470  0.00  0.00     0.000 C
ENDROOT
BRANCH 2 11
ATOM     11   O  Z9H D   1      53.717  93.379  98.6230  0.00  0.00     0.000 O
ATOM     12   O  Z9H D   1      52.394  94.371  99.5310  0.00  0.00     0.000 OA
ATOM     13   S  Z9H D   1      52.535  92.955  99.5960  0.00  0.00     0.000 S
ATOM     14   O  Z9H D   1      53.108  92.484 100.8240  0.00  0.00     0.000 OA
ATOM     15   O  Z9H D   1      51.460  92.309  98.8780  0.00  0.00     0.000 O
ENDBRANCH 2 11
BRANCH 5 16
ATOM     16   C  Z9H D   1      55.339  88.020  96.5020  0.00  0.00     0.000 C
ATOM     17   S  Z9H D   1      55.731  86.574  95.1610  0.00  0.00     0.000 S
ATOM     18   O  Z9H D   1      56.285  88.061  95.4610  0.00  0.00     0.000 O
ATOM     19   O  Z9H D   1      54.379  86.521  94.6820  0.00  0.00     0.000 O
ATOM     20   O  Z9H D   1      56.260  85.654  96.1060  0.00  0.00     0.000 OA
ATOM     21   O  Z9H D   1      56.675  86.693  94.0890  0.00  0.00     0.000 OA
ENDBRANCH 5 16
BRANCH 1 22
ATOM     22  O4  GU1 D   2      54.088  92.464  96.1730  0.00  0.00     0.000 O
BRANCH 22 26
ATOM     23  C1  GU1 D   2      53.547  94.220  92.4870  0.00  0.00     0.000 C
ATOM     24  C2  GU1 D   2      52.289  94.114  93.3350  0.00  0.00     0.000 C
ATOM     25  C3  GU1 D   2      52.672  93.826  94.7580  0.00  0.00     0.000 C
ATOM     26  C4  GU1 D   2      53.584  92.611  94.8400  0.00  0.00     0.000 C
ATOM     27  C5  GU1 D   2      54.762  92.772  93.8740  0.00  0.00     0.000 C
ATOM     28  O5  GU1 D   2      54.291  93.009  92.5500  0.00  0.00     0.000 O
ATOM     29   O  GU1 D   2      51.529  95.316  93.3140  0.00  0.00     0.000 O
ATOM     30   C  GU1 D   2      50.464  95.306  92.3740  0.00  0.00     0.000 C
ATOM     31   C  GU1 D   2      51.025  94.629  96.3180  0.00  0.00     0.000 C
ATOM     32   O  GU1 D   2      51.479  93.553  95.5010  0.00  0.00     0.000 O
BRANCH 27 33
ATOM     33   C  GU1 D   2      55.620  91.530  93.8450  0.00  0.00     0.000 C
ATOM     34   O  GU1 D   2      56.732  91.585  94.3270  0.00  0.00     0.000 OA
ATOM     35   O  GU1 D   2      55.198  90.496  93.3510  0.00  0.00     0.000 O
ENDBRANCH 27 33
BRANCH 23 36
ATOM     36  O4  GU6 D   3      53.447  94.248  91.0490  0.00  0.00     0.000 O
BRANCH 36 40
ATOM     37  C1  GU6 D   3      53.385  93.229  87.0930  0.00  0.00     0.000 C
ATOM     38  C2  GU6 D   3      53.730  94.690  87.3500  0.00  0.00     0.000 C
ATOM     39  C3  GU6 D   3      53.993  94.896  88.8190  0.00  0.00     0.000 C
ATOM     40  C4  GU6 D   3      53.670  93.793  89.7300  0.00  0.00     0.000 C
ATOM     41  C5  GU6 D   3      52.355  93.090  89.2550  0.00  0.00     0.000 C
ATOM     42  O5  GU6 D   3      52.225  92.899  87.8420  0.00  0.00     0.000 O
BRANCH 38 43
ATOM     43   O  GU6 D   3      54.865  95.073  86.5980  0.00  0.00     0.000 O
ATOM     44   S  GU6 D   3      54.647  96.285  85.7020  0.00  0.00     0.000 S
ATOM     45   O  GU6 D   3      53.986  95.839  84.4630  0.00  0.00     0.000 OA
ATOM     46   O  GU6 D   3      53.774  97.240  86.4070  0.00  0.00     0.000 O
ATOM     47   O  GU6 D   3      55.940  96.902  85.4220  0.00  0.00     0.000 OA
ENDBRANCH 38 43
BRANCH 39 48
ATOM     48   O  GU6 D   3      54.735  96.011  89.2740  0.00  0.00     0.000 O
ATOM     49   S  GU6 D   3      56.212  96.118  89.6520  0.00  0.00     0.000 S
ATOM     50   O  GU6 D   3      57.053  95.661  88.5400  0.00  0.00     0.000 OA
ATOM     51   O  GU6 D   3      56.390  97.556  89.8960  0.00  0.00     0.000 OA
ATOM     52   O  GU6 D   3      56.462  95.287  90.8510  0.00  0.00     0.000 O
ENDBRANCH 39 48
BRANCH 41 53
ATOM     53   C  GU6 D   3      51.209  92.569  90.0790  0.00  0.00     0.000 C
ATOM     54   O  GU6 D   3      51.903  91.550  90.7500  0.00  0.00     0.000 O
ATOM     55   S  GU6 D   3      51.159  90.582  91.6790  0.00  0.00     0.000 S
ATOM     56   O  GU6 D   3      50.248  89.785  90.8260  0.00  0.00     0.000 O
ATOM     57   O  GU6 D   3      52.145  89.715  92.3390  0.00  0.00     0.000 OA
ATOM     58   O  GU6 D   3      50.398  91.403  92.6480  0.00  0.00     0.000 OA
ENDBRANCH 41 53
BRANCH 37 59
ATOM     59  O4  Z9K D   4      54.306  92.125  87.2200  0.00  0.00     0.000 O
BRANCH 59 63
ATOM     60  C1  Z9K D   4      57.190  89.672  86.1670  0.00  0.00     0.000 C
ATOM     61  C2  Z9K D   4      56.896  90.387  84.8200  0.00  0.00     0.000 C
ATOM     62  C3  Z9K D   4      55.864  91.502  85.2890  0.00  0.00     0.000 C
ATOM     63  C4  Z9K D   4      54.687  91.099  86.2580  0.00  0.00     0.000 C
ATOM     64  C5  Z9K D   4      54.943  89.881  87.1590  0.00  0.00     0.000 C
ATOM     65  O5  Z9K D   4      56.373  89.952  87.3990  0.00  0.00     0.000 O
ATOM     66   O  Z9K D   4      55.224  92.181  84.1940  0.00  0.00     0.000 O
ATOM     67   C  Z9K D   4      55.960  93.277  83.6740  0.00  0.00     0.000 C
BRANCH 61 68
ATOM     68   O  Z9K D   4      58.066  91.065  84.4500  0.00  0.00     0.000 O
ATOM     69   O  Z9K D   4      56.799  90.217  82.3950  0.00  0.00     0.000 OA
ATOM     70   S  Z9K D   4      57.917  89.979  83.2570  0.00  0.00     0.000 S
ATOM     71   O  Z9K D   4      58.349  88.701  83.7340  0.00  0.00     0.000 OA
ATOM     72   O  Z9K D   4      59.052  90.739  82.8420  0.00  0.00     0.000 OA
ENDBRANCH 61 68
BRANCH 64 73
ATOM     73   C  Z9K D   4      53.986  89.885  88.3710  0.00  0.00     0.000 C
ATOM     74   O  Z9K D   4      52.755  89.630  88.2340  0.00  0.00     0.000 O
ATOM     75   O  Z9K D   4      54.392  90.133  89.5320  0.00  0.00     0.000 OA
ENDBRANCH 64 73
BRANCH 60 76
ATOM     76  O4  Z9L D   5      57.305  88.262  86.4250  0.00  0.00     0.000 O
BRANCH 76 80
ATOM     77  C1  Z9L D   5      59.170  85.510  88.6430  0.00  0.00     0.000 C
ATOM     78  C2  Z9L D   5      57.615  85.450  89.0310  0.00  0.00     0.000 C
ATOM     79  C3  Z9L D   5      56.777  86.256  87.8020  0.00  0.00     0.000 C
ATOM     80  C4  Z9L D   5      57.755  87.559  87.5540  0.00  0.00     0.000 C
ATOM     81  C5  Z9L D   5      59.356  87.659  87.3920  0.00  0.00     0.000 C
ATOM     82  O5  Z9L D   5      59.918  86.761  88.3610  0.00  0.00     0.000 O
ATOM     83   C  Z9L D   5      60.771  84.504  87.1210  0.00  0.00     0.000 C
ATOM     84   C  Z9L D   5      60.771  84.504  87.1210  0.00  0.00     0.000 C
BRANCH 78 85
ATOM     85   O  Z9L D   5      57.225  84.115  89.0480  0.00  0.00     0.000 O
ATOM     86   O  Z9L D   5      56.746  83.122  90.6290  0.00  0.00     0.000 OA
ATOM     87   S  Z9L D   5      57.026  84.525  90.5890  0.00  0.00     0.000 S
ATOM     88   O  Z9L D   5      55.763  85.166  90.8620  0.00  0.00     0.000 OA
ATOM     89   O  Z9L D   5      58.211  84.693  91.3580  0.00  0.00     0.000 OA
ENDBRANCH 78 85
BRANCH 79 90
ATOM     90   O  Z9L D   5      55.610  86.842  88.2840  0.00  0.00     0.000 O
ATOM     91   S  Z9L D   5      54.990  85.897  87.1620  0.00  0.00     0.000 S
ATOM     92   O  Z9L D   5      55.220  84.476  87.1380  0.00  0.00     0.000 OA
ATOM     93   O  Z9L D   5      54.840  86.644  85.9380  0.00  0.00     0.000 O
ATOM     94   O  Z9L D   5      53.816  86.122  87.9410  0.00  0.00     0.000 OA
ENDBRANCH 79 90
BRANCH 81 95
ATOM     95   C  Z9L D   5      60.020  89.192  87.2430  0.00  0.00     0.000 C
ATOM     96   S  Z9L D   5      60.879  90.694  88.2280  0.00  0.00     0.000 S
ATOM     97   O  Z9L D   5      59.741  89.652  88.5380  0.00  0.00     0.000 O
ATOM     98   O  Z9L D   5      60.335  91.635  87.2830  0.00  0.00     0.000 OA
ATOM     99   O  Z9L D   5      62.187  90.153  88.0650  0.00  0.00     0.000 OA
ATOM    100   O  Z9L D   5      60.536  91.134  89.5580  0.00  0.00     0.000 O
ENDBRANCH 81 95
ENDBRANCH 76 80
ENDBRANCH 60 76
ENDBRANCH 59 63
ENDBRANCH 37 59
ENDBRANCH 36 40
ENDBRANCH 23 36
ENDBRANCH 22 26
ENDBRANCH 1 22
TORSDOF 19
ENDMDL
MODEL 88
REMARK VINA RESULT:      -0.4     97.420    103.895
ROOT
ATOM      1  C1  Z9H D   1     105.104  52.239  60.3450  0.00  0.00     0.000 C
ATOM      2  C2  Z9H D   1     104.811  53.729  60.6420  0.00  0.00     0.000 C
ATOM      3  C3  Z9H D   1     103.938  54.038  59.3870  0.00  0.00     0.000 C
ATOM      4  C4  Z9H D   1     104.564  53.598  58.0000  0.00  0.00     0.000 C
ATOM      5  C5  Z9H D   1     105.199  52.172  57.7510  0.00  0.00     0.000 C
ATOM      6  O5  Z9H D   1     105.692  51.843  59.0750  0.00  0.00     0.000 O
ATOM      7   O  Z9H D   1     103.548  55.412  59.3430  0.00  0.00     0.000 O
ATOM      8   C  Z9H D   1     102.225  55.693  59.8300  0.00  0.00     0.000 C
ATOM      9   O  Z9H D   1     103.524  53.772  57.0320  0.00  0.00     0.000 O
ATOM     10   C  Z9H D   1     103.592  54.976  56.2620  0.00  0.00     0.000 C
ENDROOT
BRANCH 2 11
ATOM     11   O  Z9H D   1     103.901  53.640  61.7080  0.00  0.00     0.000 O
ATOM     12   O  Z9H D   1     104.276  54.196  63.4700  0.00  0.00     0.000 OA
ATOM     13   S  Z9H D   1     105.172  54.324  62.3710  0.00  0.00     0.000 S
ATOM     14   O  Z9H D   1     105.281  55.662  61.8630  0.00  0.00     0.000 OA
ATOM     15   O  Z9H D   1     106.270  53.394  62.5040  0.00  0.00     0.000 O
ENDBRANCH 2 11
BRANCH 5 16
ATOM     16   C  Z9H D   1     106.184  52.060  56.4030  0.00  0.00     0.000 C
ATOM     17   S  Z9H D   1     106.724  50.873  54.8730  0.00  0.00     0.000 S
ATOM     18   O  Z9H D   1     105.342  51.251  55.6170  0.00  0.00     0.000 O
ATOM     19   O  Z9H D   1     107.645  50.109  55.6660  0.00  0.00     0.000 O
ATOM     20   O  Z9H D   1     107.125  51.932  54.0160  0.00  0.00     0.000 OA
ATOM     21   O  Z9H D   1     105.824  50.032  54.1390  0.00  0.00     0.000 OA
ENDBRANCH 5 16
BRANCH 1 22
ATOM     22  O4  GU1 D   2     103.924  51.357  60.3800  0.00  0.00     0.000 O
BRANCH 22 26
ATOM     23  C1  GU1 D   2     102.557  47.596  61.3600  0.00  0.00     0.000 C
ATOM     24  C2  GU1 D   2     103.645  48.139  62.2730  0.00  0.00     0.000 C
ATOM     25  C3  GU1 D   2     103.780  49.619  62.0610  0.00  0.00     0.000 C
ATOM     26  C4  GU1 D   2     103.985  49.940  60.5880  0.00  0.00     0.000 C
ATOM     27  C5  GU1 D   2     102.899  49.263  59.7470  0.00  0.00     0.000 C
ATOM     28  O5  GU1 D   2     102.876  47.860  59.9990  0.00  0.00     0.000 O
ATOM     29   O  GU1 D   2     103.349  47.912  63.6460  0.00  0.00     0.000 O
ATOM     30   C  GU1 D   2     103.974  46.756  64.1850  0.00  0.00     0.000 C
ATOM     31   C  GU1 D   2     104.619  50.741  64.0180  0.00  0.00     0.000 C
ATOM     32   O  GU1 D   2     104.921  50.078  62.7920  0.00  0.00     0.000 O
BRANCH 27 33
ATOM     33   C  GU1 D   2     103.145  49.464  58.2710  0.00  0.00     0.000 C
ATOM     34   O  GU1 D   2     102.395  50.193  57.6540  0.00  0.00     0.000 OA
ATOM     35   O  GU1 D   2     104.080  48.908  57.7160  0.00  0.00     0.000 O
ENDBRANCH 27 33
BRANCH 23 36
ATOM     36  O4  GU6 D   3     102.399  46.173  61.1930  0.00  0.00     0.000 O
BRANCH 36 40
ATOM     37  C1  GU6 D   3     102.577  42.336  59.8020  0.00  0.00     0.000 C
ATOM     38  C2  GU6 D   3     101.357  42.624  60.6670  0.00  0.00     0.000 C
ATOM     39  C3  GU6 D   3     101.241  44.108  60.8990  0.00  0.00     0.000 C
ATOM     40  C4  GU6 D   3     102.366  44.952  60.4820  0.00  0.00     0.000 C
ATOM     41  C5  GU6 D   3     103.712  44.211  60.7750  0.00  0.00     0.000 C
ATOM     42  O5  GU6 D   3     103.732  42.811  60.4760  0.00  0.00     0.000 O
BRANCH 38 43
ATOM     43   O  GU6 D   3     100.181  42.138  60.0480  0.00  0.00     0.000 O
ATOM     44   S  GU6 D   3      99.365  41.182  60.9080  0.00  0.00     0.000 S
ATOM     45   O  GU6 D   3      99.962  39.839  60.8110  0.00  0.00     0.000 OA
ATOM     46   O  GU6 D   3      99.421  41.644  62.3070  0.00  0.00     0.000 O
ATOM     47   O  GU6 D   3      97.984  41.186  60.4360  0.00  0.00     0.000 OA
ENDBRANCH 38 43
BRANCH 39 48
ATOM     48   O  GU6 D   3     100.010  44.689  61.2840  0.00  0.00     0.000 O
ATOM     49   S  GU6 D   3      98.948  45.389  60.4360  0.00  0.00     0.000 S
ATOM     50   O  GU6 D   3      98.511  44.510  59.3460  0.00  0.00     0.000 OA
ATOM     51   O  GU6 D   3      97.861  45.627  61.3950  0.00  0.00     0.000 OA
ATOM     52   O  GU6 D   3      99.522  46.636  59.8830  0.00  0.00     0.000 O
ENDBRANCH 39 48
BRANCH 41 53
ATOM     53   C  GU6 D   3     105.002  44.767  61.3150  0.00  0.00     0.000 C
ATOM     54   O  GU6 D   3     105.315  45.608  60.2350  0.00  0.00     0.000 O
ATOM     55   S  GU6 D   3     106.645  46.371  60.2030  0.00  0.00     0.000 S
ATOM     56   O  GU6 D   3     107.718  45.356  60.0870  0.00  0.00     0.000 O
ATOM     57   O  GU6 D   3     106.646  47.263  59.0340  0.00  0.00     0.000 OA
ATOM     58   O  GU6 D   3     106.754  47.118  61.4760  0.00  0.00     0.000 OA
ENDBRANCH 41 53
BRANCH 37 59
ATOM     59  O4  Z9K D   4     102.711  42.699  58.4110  0.00  0.00     0.000 O
BRANCH 59 63
ATOM     60  C1  Z9K D   4     102.225  42.378  54.5240  0.00  0.00     0.000 C
ATOM     61  C2  Z9K D   4     101.765  40.973  55.0020  0.00  0.00     0.000 C
ATOM     62  C3  Z9K D   4     101.787  41.169  56.5800  0.00  0.00     0.000 C
ATOM     63  C4  Z9K D   4     103.026  41.879  57.2480  0.00  0.00     0.000 C
ATOM     64  C5  Z9K D   4     103.804  42.859  56.3570  0.00  0.00     0.000 C
ATOM     65  O5  Z9K D   4     102.770  43.395  55.4890  0.00  0.00     0.000 O
ATOM     66   O  Z9K D   4     101.630  39.938  57.3090  0.00  0.00     0.000 O
ATOM     67   C  Z9K D   4     100.282  39.547  57.5150  0.00  0.00     0.000 C
BRANCH 61 68
ATOM     68   O  Z9K D   4     100.418  40.836  54.6420  0.00  0.00     0.000 O
ATOM     69   O  Z9K D   4     101.641  38.592  54.5150  0.00  0.00     0.000 OA
ATOM     70   S  Z9K D   4     101.122  39.684  53.7480  0.00  0.00     0.000 S
ATOM     71   O  Z9K D   4     101.761  40.293  52.6220  0.00  0.00     0.000 OA
ATOM     72   O  Z9K D   4      99.737  39.492  53.4620  0.00  0.00     0.000 OA
ENDBRANCH 61 68
BRANCH 64 73
ATOM     73   C  Z9K D   4     104.636  43.837  57.2120  0.00  0.00     0.000 C
ATOM     74   O  Z9K D   4     105.675  43.453  57.8230  0.00  0.00     0.000 O
ATOM     75   O  Z9K D   4     104.321  45.047  57.3280  0.00  0.00     0.000 OA
ENDBRANCH 64 73
BRANCH 60 76
ATOM     76  O4  Z9L D   5     103.153  42.706  53.4760  0.00  0.00     0.000 O
BRANCH 76 80
ATOM     77  C1  Z9L D   5     103.914  45.262  50.5000  0.00  0.00     0.000 C
ATOM     78  C2  Z9L D   5     105.082  45.443  51.5850  0.00  0.00     0.000 C
ATOM     79  C3  Z9L D   5     105.027  44.082  52.5880  0.00  0.00     0.000 C
ATOM     80  C4  Z9L D   5     103.403  43.913  52.8030  0.00  0.00     0.000 C
ATOM     81  C5  Z9L D   5     102.189  43.959  51.7420  0.00  0.00     0.000 C
ATOM     82  O5  Z9L D   5     102.486  45.031  50.8350  0.00  0.00     0.000 O
ATOM     83   C  Z9L D   5     103.389  44.008  48.4890  0.00  0.00     0.000 C
ATOM     84   C  Z9L D   5     103.389  44.008  48.4890  0.00  0.00     0.000 C
BRANCH 78 85
ATOM     85   O  Z9L D   5     106.299  45.464  50.9100  0.00  0.00     0.000 O
ATOM     86   O  Z9L D   5     107.438  47.007  50.7300  0.00  0.00     0.000 OA
ATOM     87   S  Z9L D   5     106.251  46.947  51.5270  0.00  0.00     0.000 S
ATOM     88   O  Z9L D   5     106.711  47.025  52.8910  0.00  0.00     0.000 OA
ATOM     89   O  Z9L D   5     105.344  47.858  50.9170  0.00  0.00     0.000 OA
ENDBRANCH 78 85
BRANCH 79 90
ATOM     90   O  Z9L D   5     105.473  44.381  53.8730  0.00  0.00     0.000 O
ATOM     91   S  Z9L D   5     106.493  43.216  53.5010  0.00  0.00     0.000 S
ATOM     92   O  Z9L D   5     107.331  43.270  52.3320  0.00  0.00     0.000 OA
ATOM     93   O  Z9L D   5     105.980  41.960  53.9890  0.00  0.00     0.000 O
ATOM     94   O  Z9L D   5     107.219  43.819  54.5710  0.00  0.00     0.000 OA
ENDBRANCH 79 90
BRANCH 81 95
ATOM     95   C  Z9L D   5     100.631  43.837  52.3510  0.00  0.00     0.000 C
ATOM     96   S  Z9L D   5      99.038  44.865  52.9630  0.00  0.00     0.000 S
ATOM     97   O  Z9L D   5     100.599  45.051  53.0530  0.00  0.00     0.000 O
ATOM     98   O  Z9L D   5      98.694  43.803  53.8740  0.00  0.00     0.000 OA
ATOM     99   O  Z9L D   5      98.481  44.927  51.6540  0.00  0.00     0.000 OA
ATOM    100   O  Z9L D   5      99.069  46.105  53.6990  0.00  0.00     0.000 O
ENDBRANCH 81 95
ENDBRANCH 76 80
ENDBRANCH 60 76
ENDBRANCH 59 63
ENDBRANCH 37 59
ENDBRANCH 36 40
ENDBRANCH 23 36
ENDBRANCH 22 26
ENDBRANCH 1 22
TORSDOF 19
ENDMDL
MODEL 89
REMARK VINA RESULT:      -0.4     96.210    102.374
ROOT
ATOM      1  C1  Z9H D   1     106.594  47.958  39.1380  0.00  0.00     0.000 C
ATOM      2  C2  Z9H D   1     106.383  49.165  38.1940  0.00  0.00     0.000 C
ATOM      3  C3  Z9H D   1     105.776  50.157  39.2330  0.00  0.00     0.000 C
ATOM      4  C4  Z9H D   1     104.577  49.586  40.0970  0.00  0.00     0.000 C
ATOM      5  C5  Z9H D   1     104.619  48.176  40.8090  0.00  0.00     0.000 C
ATOM      6  O5  Z9H D   1     105.485  47.430  39.9180  0.00  0.00     0.000 O
ATOM      7   O  Z9H D   1     105.405  51.395  38.6240  0.00  0.00     0.000 O
ATOM      8   C  Z9H D   1     106.358  52.462  38.7680  0.00  0.00     0.000 C
ATOM      9   O  Z9H D   1     104.328  50.565  41.1110  0.00  0.00     0.000 O
ATOM     10   C  Z9H D   1     103.237  51.455  40.8560  0.00  0.00     0.000 C
ENDROOT
BRANCH 2 11
ATOM     11   O  Z9H D   1     107.699  49.609  37.9890  0.00  0.00     0.000 O
ATOM     12   O  Z9H D   1     108.607  49.507  36.3390  0.00  0.00     0.000 OA
ATOM     13   S  Z9H D   1     107.257  49.105  36.5490  0.00  0.00     0.000 S
ATOM     14   O  Z9H D   1     106.289  50.026  36.0260  0.00  0.00     0.000 OA
ATOM     15   O  Z9H D   1     107.146  47.665  36.4980  0.00  0.00     0.000 O
ENDBRANCH 2 11
BRANCH 5 16
ATOM     16   C  Z9H D   1     103.130  47.575  41.2820  0.00  0.00     0.000 C
ATOM     17   S  Z9H D   1     102.162  46.577  42.7330  0.00  0.00     0.000 S
ATOM     18   O  Z9H D   1     103.295  47.725  42.6710  0.00  0.00     0.000 O
ATOM     19   O  Z9H D   1     102.582  45.289  42.2590  0.00  0.00     0.000 O
ATOM     20   O  Z9H D   1     100.885  47.133  42.4490  0.00  0.00     0.000 OA
ATOM     21   O  Z9H D   1     102.407  46.738  44.1360  0.00  0.00     0.000 OA
ENDBRANCH 5 16
BRANCH 1 22
ATOM     22  O4  GU1 D   2     107.591  48.171  40.2020  0.00  0.00     0.000 O
BRANCH 22 26
ATOM     23  C1  GU1 D   2     110.531  46.389  42.4720  0.00  0.00     0.000 C
ATOM     24  C2  GU1 D   2     110.432  45.881  41.0410  0.00  0.00     0.000 C
ATOM     25  C3  GU1 D   2     109.618  46.845  40.2270  0.00  0.00     0.000 C
ATOM     26  C4  GU1 D   2     108.273  47.114  40.8880  0.00  0.00     0.000 C
ATOM     27  C5  GU1 D   2     108.480  47.517  42.3510  0.00  0.00     0.000 C
ATOM     28  O5  GU1 D   2     109.234  46.523  43.0400  0.00  0.00     0.000 O
ATOM     29   O  GU1 D   2     111.711  45.755  40.4310  0.00  0.00     0.000 O
ATOM     30   C  GU1 D   2     112.244  44.439  40.4810  0.00  0.00     0.000 C
ATOM     31   C  GU1 D   2     110.207  46.782  37.8940  0.00  0.00     0.000 C
ATOM     32   O  GU1 D   2     109.386  46.265  38.9390  0.00  0.00     0.000 O
BRANCH 27 33
ATOM     33   C  GU1 D   2     107.159  47.674  43.0660  0.00  0.00     0.000 C
ATOM     34   O  GU1 D   2     106.805  48.790  43.3870  0.00  0.00     0.000 OA
ATOM     35   O  GU1 D   2     106.465  46.699  43.3100  0.00  0.00     0.000 O
ENDBRANCH 27 33
BRANCH 23 36
ATOM     36  O4  GU6 D   3     111.049  45.530  43.5070  0.00  0.00     0.000 O
BRANCH 36 40
ATOM     37  C1  GU6 D   3     111.420  42.911  46.6210  0.00  0.00     0.000 C
ATOM     38  C2  GU6 D   3     112.602  43.861  46.4670  0.00  0.00     0.000 C
ATOM     39  C3  GU6 D   3     112.252  44.946  45.4830  0.00  0.00     0.000 C
ATOM     40  C4  GU6 D   3     111.013  44.794  44.7130  0.00  0.00     0.000 C
ATOM     41  C5  GU6 D   3     110.816  43.290  44.3310  0.00  0.00     0.000 C
ATOM     42  O5  GU6 D   3     111.132  42.339  45.3540  0.00  0.00     0.000 O
BRANCH 38 43
ATOM     43   O  GU6 D   3     112.946  44.432  47.7150  0.00  0.00     0.000 O
ATOM     44   S  GU6 D   3     114.400  44.229  48.1200  0.00  0.00     0.000 S
ATOM     45   O  GU6 D   3     114.540  42.885  48.7050  0.00  0.00     0.000 OA
ATOM     46   O  GU6 D   3     115.243  44.329  46.9140  0.00  0.00     0.000 O
ATOM     47   O  GU6 D   3     114.771  45.267  49.0760  0.00  0.00     0.000 OA
ENDBRANCH 38 43
BRANCH 39 48
ATOM     48   O  GU6 D   3     112.962  46.170  45.4690  0.00  0.00     0.000 O
ATOM     49   S  GU6 D   3     112.607  47.517  46.0990  0.00  0.00     0.000 S
ATOM     50   O  GU6 D   3     112.363  47.353  47.5370  0.00  0.00     0.000 OA
ATOM     51   O  GU6 D   3     113.808  48.326  45.8530  0.00  0.00     0.000 OA
ATOM     52   O  GU6 D   3     111.396  48.052  45.4370  0.00  0.00     0.000 O
ENDBRANCH 39 48
BRANCH 41 53
ATOM     53   C  GU6 D   3     110.324  42.698  43.0380  0.00  0.00     0.000 C
ATOM     54   O  GU6 D   3     109.015  43.204  43.0820  0.00  0.00     0.000 O
ATOM     55   S  GU6 D   3     107.989  42.802  42.0140  0.00  0.00     0.000 S
ATOM     56   O  GU6 D   3     107.734  41.353  42.1890  0.00  0.00     0.000 O
ATOM     57   O  GU6 D   3     106.758  43.576  42.2320  0.00  0.00     0.000 OA
ATOM     58   O  GU6 D   3     108.597  43.080  40.6940  0.00  0.00     0.000 OA
ENDBRANCH 41 53
BRANCH 37 59
ATOM     59  O4  Z9K D   4     110.160  43.249  47.2360  0.00  0.00     0.000 O
BRANCH 59 63
ATOM     60  C1  Z9K D   4     107.612  43.868  50.1640  0.00  0.00     0.000 C
ATOM     61  C2  Z9K D   4     108.769  43.154  50.9170  0.00  0.00     0.000 C
ATOM     62  C3  Z9K D   4     109.869  43.072  49.7720  0.00  0.00     0.000 C
ATOM     63  C4  Z9K D   4     109.441  42.605  48.3280  0.00  0.00     0.000 C
ATOM     64  C5  Z9K D   4     107.974  42.852  47.9470  0.00  0.00     0.000 C
ATOM     65  O5  Z9K D   4     107.652  44.067  48.6740  0.00  0.00     0.000 O
ATOM     66   O  Z9K D   4     110.986  42.232  50.1160  0.00  0.00     0.000 O
ATOM     67   C  Z9K D   4     112.004  42.886  50.8570  0.00  0.00     0.000 C
BRANCH 61 68
ATOM     68   O  Z9K D   4     109.259  44.057  51.8700  0.00  0.00     0.000 O
ATOM     69   O  Z9K D   4     109.407  41.647  52.7170  0.00  0.00     0.000 OA
ATOM     70   S  Z9K D   4     108.670  42.872  52.8040  0.00  0.00     0.000 S
ATOM     71   O  Z9K D   4     107.245  42.989  52.8620  0.00  0.00     0.000 OA
ATOM     72   O  Z9K D   4     109.258  43.753  53.7600  0.00  0.00     0.000 OA
ENDBRANCH 61 68
BRANCH 64 73
ATOM     73   C  Z9K D   4     107.795  42.835  46.4140  0.00  0.00     0.000 C
ATOM     74   O  Z9K D   4     107.864  41.756  45.7580  0.00  0.00     0.000 O
ATOM     75   O  Z9K D   4     107.568  43.885  45.7630  0.00  0.00     0.000 OA
ENDBRANCH 64 73
BRANCH 60 76
ATOM     76  O4  Z9L D   5     106.205  43.576  50.2030  0.00  0.00     0.000 O
BRANCH 76 80
ATOM     77  C1  Z9L D   5     102.552  45.198  50.2270  0.00  0.00     0.000 C
ATOM     78  C2  Z9L D   5     102.687  44.363  48.8640  0.00  0.00     0.000 C
ATOM     79  C3  Z9L D   5     104.008  43.326  49.0590  0.00  0.00     0.000 C
ATOM     80  C4  Z9L D   5     105.090  44.327  49.7950  0.00  0.00     0.000 C
ATOM     81  C5  Z9L D   5     104.909  45.350  51.0290  0.00  0.00     0.000 C
ATOM     82  O5  Z9L D   5     103.646  46.002  50.8300  0.00  0.00     0.000 O
ATOM     83   C  Z9L D   5     101.805  44.948  52.5230  0.00  0.00     0.000 C
ATOM     84   C  Z9L D   5     101.805  44.948  52.5230  0.00  0.00     0.000 C
BRANCH 78 85
ATOM     85   O  Z9L D   5     101.531  43.605  48.7070  0.00  0.00     0.000 O
ATOM     86   O  Z9L D   5     100.188  43.900  47.3570  0.00  0.00     0.000 OA
ATOM     87   S  Z9L D   5     101.436  44.596  47.4450  0.00  0.00     0.000 S
ATOM     88   O  Z9L D   5     102.192  44.153  46.3000  0.00  0.00     0.000 OA
ATOM     89   O  Z9L D   5     101.092  45.947  47.7260  0.00  0.00     0.000 OA
ENDBRANCH 78 85
BRANCH 79 90
ATOM     90   O  Z9L D   5     104.626  43.058  47.8400  0.00  0.00     0.000 O
ATOM     91   S  Z9L D   5     104.271  41.572  48.2920  0.00  0.00     0.000 S
ATOM     92   O  Z9L D   5     102.928  41.165  48.6140  0.00  0.00     0.000 OA
ATOM     93   O  Z9L D   5     105.404  40.997  48.9730  0.00  0.00     0.000 O
ATOM     94   O  Z9L D   5     104.458  41.345  46.8960  0.00  0.00     0.000 OA
ENDBRANCH 79 90
BRANCH 81 95
ATOM     95   C  Z9L D   5     106.234  46.286  51.4520  0.00  0.00     0.000 C
ATOM     96   S  Z9L D   5     107.121  48.053  51.2100  0.00  0.00     0.000 S
ATOM     97   O  Z9L D   5     106.293  47.075  50.2940  0.00  0.00     0.000 O
ATOM     98   O  Z9L D   5     108.410  47.443  51.4100  0.00  0.00     0.000 OA
ATOM     99   O  Z9L D   5     106.405  48.645  52.2890  0.00  0.00     0.000 OA
ATOM    100   O  Z9L D   5     107.163  48.813  49.9840  0.00  0.00     0.000 O
ENDBRANCH 81 95
ENDBRANCH 76 80
ENDBRANCH 60 76
ENDBRANCH 59 63
ENDBRANCH 37 59
ENDBRANCH 36 40
ENDBRANCH 23 36
ENDBRANCH 22 26
ENDBRANCH 1 22
TORSDOF 19
ENDMDL
MODEL 90
REMARK VINA RESULT:      -0.4    160.858    169.058
ROOT
ATOM      1  C1  Z9H D   1     141.167 129.081  12.0370  0.00  0.00     0.000 C
ATOM      2  C2  Z9H D   1     141.209 127.842  12.9630  0.00  0.00     0.000 C
ATOM      3  C3  Z9H D   1     142.194 128.399  14.0360  0.00  0.00     0.000 C
ATOM      4  C4  Z9H D   1     143.532 129.030  13.4680  0.00  0.00     0.000 C
ATOM      5  C5  Z9H D   1     143.561 130.060  12.2690  0.00  0.00     0.000 C
ATOM      6  O5  Z9H D   1     142.398 129.647  11.5070  0.00  0.00     0.000 O
ATOM      7   O  Z9H D   1     142.491 127.423  15.0360  0.00  0.00     0.000 O
ATOM      8   C  Z9H D   1     141.737 127.540  16.2540  0.00  0.00     0.000 C
ATOM      9   O  Z9H D   1     144.168 129.662  14.5830  0.00  0.00     0.000 O
ATOM     10   C  Z9H D   1     145.218 128.912  15.2020  0.00  0.00     0.000 C
ENDROOT
BRANCH 2 11
ATOM     11   O  Z9H D   1     139.944 127.887  13.5690  0.00  0.00     0.000 O
ATOM     12   O  Z9H D   1     138.580 126.619  13.2690  0.00  0.00     0.000 OA
ATOM     13   S  Z9H D   1     139.884 126.559  12.6980  0.00  0.00     0.000 S
ATOM     14   O  Z9H D   1     140.739 125.581  13.3070  0.00  0.00     0.000 OA
ATOM     15   O  Z9H D   1     139.828 126.850  11.2840  0.00  0.00     0.000 O
ENDBRANCH 2 11
BRANCH 5 16
ATOM     16   C  Z9H D   1     145.054 130.258  11.5400  0.00  0.00     0.000 C
ATOM     17   S  Z9H D   1     146.267 131.587  10.6450  0.00  0.00     0.000 S
ATOM     18   O  Z9H D   1     145.278 131.594  11.9210  0.00  0.00     0.000 O
ATOM     19   O  Z9H D   1     145.611 131.475   9.3740  0.00  0.00     0.000 O
ATOM     20   O  Z9H D   1     147.473 130.905  10.9630  0.00  0.00     0.000 OA
ATOM     21   O  Z9H D   1     146.418 132.954  11.0510  0.00  0.00     0.000 OA
ENDBRANCH 5 16
BRANCH 1 22
ATOM     22  O4  GU1 D   2     140.558 130.281  12.6370  0.00  0.00     0.000 O
BRANCH 22 26
ATOM     23  C1  GU1 D   2     138.266 133.625  11.9030  0.00  0.00     0.000 C
ATOM     24  C2  GU1 D   2     137.878 132.394  11.0970  0.00  0.00     0.000 C
ATOM     25  C3  GU1 D   2     138.506 131.178  11.7140  0.00  0.00     0.000 C
ATOM     26  C4  GU1 D   2     140.007 131.366  11.8810  0.00  0.00     0.000 C
ATOM     27  C5  GU1 D   2     140.293 132.682  12.6110  0.00  0.00     0.000 C
ATOM     28  O5  GU1 D   2     139.681 133.774  11.9290  0.00  0.00     0.000 O
ATOM     29   O  GU1 D   2     136.469 132.200  11.0670  0.00  0.00     0.000 O
ATOM     30   C  GU1 D   2     135.842 132.718   9.9030  0.00  0.00     0.000 C
ATOM     31   C  GU1 D   2     137.241 129.181  11.2660  0.00  0.00     0.000 C
ATOM     32   O  GU1 D   2     138.279 130.063  10.8460  0.00  0.00     0.000 O
BRANCH 27 33
ATOM     33   C  GU1 D   2     141.776 132.955  12.6850  0.00  0.00     0.000 C
ATOM     34   O  GU1 D   2     142.359 133.261  11.6650  0.00  0.00     0.000 OA
ATOM     35   O  GU1 D   2     142.370 132.873  13.7490  0.00  0.00     0.000 O
ENDBRANCH 27 33
BRANCH 23 36
ATOM     36  O4  GU6 D   3     137.997 134.942  11.3820  0.00  0.00     0.000 O
BRANCH 36 40
ATOM     37  C1  GU6 D   3     138.310 138.581   9.5520  0.00  0.00     0.000 C
ATOM     38  C2  GU6 D   3     137.242 138.525  10.6370  0.00  0.00     0.000 C
ATOM     39  C3  GU6 D   3     137.390 137.249  11.4250  0.00  0.00     0.000 C
ATOM     40  C4  GU6 D   3     138.318 136.235  10.9120  0.00  0.00     0.000 C
ATOM     41  C5  GU6 D   3     138.234 136.192   9.3500  0.00  0.00     0.000 C
ATOM     42  O5  GU6 D   3     138.144 137.463   8.6950  0.00  0.00     0.000 O
BRANCH 38 43
ATOM     43   O  GU6 D   3     137.350 139.640  11.5000  0.00  0.00     0.000 O
ATOM     44   S  GU6 D   3     136.070 140.454  11.6390  0.00  0.00     0.000 S
ATOM     45   O  GU6 D   3     135.967 141.365  10.4860  0.00  0.00     0.000 OA
ATOM     46   O  GU6 D   3     134.922 139.530  11.6370  0.00  0.00     0.000 O
ATOM     47   O  GU6 D   3     136.116 141.192  12.8970  0.00  0.00     0.000 OA
ENDBRANCH 38 43
BRANCH 39 48
ATOM     48   O  GU6 D   3     136.840 137.129  12.7230  0.00  0.00     0.000 O
ATOM     49   S  GU6 D   3     137.505 137.290  14.0890  0.00  0.00     0.000 S
ATOM     50   O  GU6 D   3     138.155 138.602  14.1830  0.00  0.00     0.000 OA
ATOM     51   O  GU6 D   3     136.376 137.188  15.0230  0.00  0.00     0.000 OA
ATOM     52   O  GU6 D   3     138.507 136.215  14.2640  0.00  0.00     0.000 O
ENDBRANCH 39 48
BRANCH 41 53
ATOM     53   C  GU6 D   3     138.251 135.000   8.4330  0.00  0.00     0.000 C
ATOM     54   O  GU6 D   3     139.566 134.579   8.6900  0.00  0.00     0.000 O
ATOM     55   S  GU6 D   3     140.178 133.413   7.9030  0.00  0.00     0.000 S
ATOM     56   O  GU6 D   3     140.297 133.862   6.4960  0.00  0.00     0.000 O
ATOM     57   O  GU6 D   3     141.501 133.111   8.4670  0.00  0.00     0.000 OA
ATOM     58   O  GU6 D   3     139.246 132.269   8.0190  0.00  0.00     0.000 OA
ENDBRANCH 41 53
BRANCH 37 59
ATOM     59  O4  Z9K D   4     139.725 138.734   9.7890  0.00  0.00     0.000 O
BRANCH 59 63
ATOM     60  C1  Z9K D   4     143.090 140.617  10.5500  0.00  0.00     0.000 C
ATOM     61  C2  Z9K D   4     142.146 141.807  10.2210  0.00  0.00     0.000 C
ATOM     62  C3  Z9K D   4     140.749 141.059  10.0960  0.00  0.00     0.000 C
ATOM     63  C4  Z9K D   4     140.668 139.717   9.2720  0.00  0.00     0.000 C
ATOM     64  C5  Z9K D   4     141.969 138.906   9.1730  0.00  0.00     0.000 C
ATOM     65  O5  Z9K D   4     142.623 139.192  10.4370  0.00  0.00     0.000 O
ATOM     66   O  Z9K D   4     139.705 141.888   9.5560  0.00  0.00     0.000 O
ATOM     67   C  Z9K D   4     139.035 142.688  10.5170  0.00  0.00     0.000 C
BRANCH 61 68
ATOM     68   O  Z9K D   4     142.067 142.599  11.3750  0.00  0.00     0.000 O
ATOM     69   O  Z9K D   4     141.925 144.030   9.2580  0.00  0.00     0.000 OA
ATOM     70   S  Z9K D   4     142.780 143.606  10.3260  0.00  0.00     0.000 S
ATOM     71   O  Z9K D   4     144.160 143.248  10.2010  0.00  0.00     0.000 OA
ATOM     72   O  Z9K D   4     142.606 144.433  11.4760  0.00  0.00     0.000 OA
ENDBRANCH 61 68
BRANCH 64 73
ATOM     73   C  Z9K D   4     141.673 137.437   8.8060  0.00  0.00     0.000 C
ATOM     74   O  Z9K D   4     141.790 136.511   9.6610  0.00  0.00     0.000 O
ATOM     75   O  Z9K D   4     141.300 137.105   7.6550  0.00  0.00     0.000 OA
ENDBRANCH 64 73
BRANCH 60 76
ATOM     76  O4  Z9L D   5     144.404 140.348  10.0310  0.00  0.00     0.000 O
BRANCH 76 80
ATOM     77  C1  Z9L D   5     148.011 138.890  10.9430  0.00  0.00     0.000 C
ATOM     78  C2  Z9L D   5     147.386 137.929   9.8210  0.00  0.00     0.000 C
ATOM     79  C3  Z9L D   5     146.104 138.777   9.1150  0.00  0.00     0.000 C
ATOM     80  C4  Z9L D   5     145.398 139.447  10.4450  0.00  0.00     0.000 C
ATOM     81  C5  Z9L D   5     146.044 140.221  11.7040  0.00  0.00     0.000 C
ATOM     82  O5  Z9L D   5     147.235 139.500  12.0530  0.00  0.00     0.000 O
ATOM     83   C  Z9L D   5     149.410 140.861  11.1690  0.00  0.00     0.000 C
ATOM     84   C  Z9L D   5     149.410 140.861  11.1690  0.00  0.00     0.000 C
BRANCH 78 85
ATOM     85   O  Z9L D   5     148.364 137.696   8.8590  0.00  0.00     0.000 O
ATOM     86   O  Z9L D   5     149.232 136.005   8.5490  0.00  0.00     0.000 OA
ATOM     87   S  Z9L D   5     148.140 136.219   9.4490  0.00  0.00     0.000 S
ATOM     88   O  Z9L D   5     147.025 135.520   8.8590  0.00  0.00     0.000 OA
ATOM     89   O  Z9L D   5     148.669 135.968  10.7460  0.00  0.00     0.000 OA
ENDBRANCH 78 85
BRANCH 79 90
ATOM     90   O  Z9L D   5     145.117 137.911   8.6530  0.00  0.00     0.000 O
ATOM     91   S  Z9L D   5     145.438 138.694   7.3040  0.00  0.00     0.000 S
ATOM     92   O  Z9L D   5     146.765 138.762   6.7500  0.00  0.00     0.000 OA
ATOM     93   O  Z9L D   5     144.517 139.794   7.1590  0.00  0.00     0.000 O
ATOM     94   O  Z9L D   5     144.807 137.540   6.7500  0.00  0.00     0.000 OA
ENDBRANCH 79 90
BRANCH 81 95
ATOM     95   C  Z9L D   5     145.004 140.689  12.9340  0.00  0.00     0.000 C
ATOM     96   S  Z9L D   5     144.255 140.188  14.7100  0.00  0.00     0.000 S
ATOM     97   O  Z9L D   5     144.669 139.411  13.4040  0.00  0.00     0.000 O
ATOM     98   O  Z9L D   5     143.038 140.894  14.4040  0.00  0.00     0.000 OA
ATOM     99   O  Z9L D   5     145.318 140.816  15.4200  0.00  0.00     0.000 OA
ATOM    100   O  Z9L D   5     143.913 138.852  15.1320  0.00  0.00     0.000 O
ENDBRANCH 81 95
ENDBRANCH 76 80
ENDBRANCH 60 76
ENDBRANCH 59 63
ENDBRANCH 37 59
ENDBRANCH 36 40
ENDBRANCH 23 36
ENDBRANCH 22 26
ENDBRANCH 1 22
TORSDOF 19
ENDMDL
MODEL 91
REMARK VINA RESULT:      -0.4    110.040    114.907
ROOT
ATOM      1  C1  Z9H D   1      44.127 121.787  70.7090  0.00  0.00     0.000 C
ATOM      2  C2  Z9H D   1      44.741 121.608  72.1180  0.00  0.00     0.000 C
ATOM      3  C3  Z9H D   1      43.547 120.861  72.7870  0.00  0.00     0.000 C
ATOM      4  C4  Z9H D   1      42.129 121.545  72.6030  0.00  0.00     0.000 C
ATOM      5  C5  Z9H D   1      41.595 122.065  71.2100  0.00  0.00     0.000 C
ATOM      6  O5  Z9H D   1      42.831 122.428  70.5450  0.00  0.00     0.000 O
ATOM      7   O  Z9H D   1      43.797 120.601  74.1690  0.00  0.00     0.000 O
ATOM      8   C  Z9H D   1      44.267 119.276  74.4710  0.00  0.00     0.000 C
ATOM      9   O  Z9H D   1      41.174 120.598  73.0950  0.00  0.00     0.000 O
ATOM     10   C  Z9H D   1      40.704 120.830  74.4260  0.00  0.00     0.000 C
ENDROOT
BRANCH 2 11
ATOM     11   O  Z9H D   1      45.710 120.619  71.8910  0.00  0.00     0.000 O
ATOM     12   O  Z9H D   1      47.570 120.913  72.0010  0.00  0.00     0.000 OA
ATOM     13   S  Z9H D   1      46.575 121.894  72.2750  0.00  0.00     0.000 S
ATOM     14   O  Z9H D   1      46.392 122.159  73.6740  0.00  0.00     0.000 OA
ATOM     15   O  Z9H D   1      46.550 122.892  71.2300  0.00  0.00     0.000 O
ENDBRANCH 2 11
BRANCH 5 16
ATOM     16   C  Z9H D   1      40.308 123.132  71.2970  0.00  0.00     0.000 C
ATOM     17   S  Z9H D   1      38.596 123.697  70.4080  0.00  0.00     0.000 S
ATOM     18   O  Z9H D   1      39.326 122.295  70.7360  0.00  0.00     0.000 O
ATOM     19   O  Z9H D   1      39.261 124.508  69.4290  0.00  0.00     0.000 O
ATOM     20   O  Z9H D   1      38.001 124.227  71.5850  0.00  0.00     0.000 OA
ATOM     21   O  Z9H D   1      37.654 122.797  69.8090  0.00  0.00     0.000 OA
ENDBRANCH 5 16
BRANCH 1 22
ATOM     22  O4  GU1 D   2      43.900 120.534  69.9680  0.00  0.00     0.000 O
BRANCH 22 26
ATOM     23  C1  GU1 D   2      43.918 118.771  66.2450  0.00  0.00     0.000 C
ATOM     24  C2  GU1 D   2      44.977 119.843  66.4500  0.00  0.00     0.000 C
ATOM     25  C3  GU1 D   2      45.122 120.125  67.9180  0.00  0.00     0.000 C
ATOM     26  C4  GU1 D   2      43.774 120.453  68.5440  0.00  0.00     0.000 C
ATOM     27  C5  GU1 D   2      42.754 119.366  68.1910  0.00  0.00     0.000 C
ATOM     28  O5  GU1 D   2      42.671 119.200  66.7780  0.00  0.00     0.000 O
ATOM     29   O  GU1 D   2      46.246 119.441  65.9480  0.00  0.00     0.000 O
ATOM     30   C  GU1 D   2      46.526 119.922  64.6410  0.00  0.00     0.000 C
ATOM     31   C  GU1 D   2      47.319 120.936  68.4720  0.00  0.00     0.000 C
ATOM     32   O  GU1 D   2      45.987 121.254  68.0780  0.00  0.00     0.000 O
BRANCH 27 33
ATOM     33   C  GU1 D   2      41.377 119.723  68.6970  0.00  0.00     0.000 C
ATOM     34   O  GU1 D   2      40.776 120.625  68.1500  0.00  0.00     0.000 OA
ATOM     35   O  GU1 D   2      40.882 119.114  69.6330  0.00  0.00     0.000 O
ENDBRANCH 27 33
BRANCH 23 36
ATOM     36  O4  GU6 D   3      43.417 118.497  64.9220  0.00  0.00     0.000 O
BRANCH 36 40
ATOM     37  C1  GU6 D   3      41.181 118.416  61.5030  0.00  0.00     0.000 C
ATOM     38  C2  GU6 D   3      42.032 117.171  61.7150  0.00  0.00     0.000 C
ATOM     39  C3  GU6 D   3      42.597 117.176  63.1110  0.00  0.00     0.000 C
ATOM     40  C4  GU6 D   3      42.441 118.401  63.9040  0.00  0.00     0.000 C
ATOM     41  C5  GU6 D   3      42.615 119.649  62.9780  0.00  0.00     0.000 C
ATOM     42  O5  GU6 D   3      42.000 119.561  61.6880  0.00  0.00     0.000 O
BRANCH 38 43
ATOM     43   O  GU6 D   3      41.263 116.001  61.5100  0.00  0.00     0.000 O
ATOM     44   S  GU6 D   3      41.836 115.044  60.4730  0.00  0.00     0.000 S
ATOM     45   O  GU6 D   3      41.454 115.522  59.1330  0.00  0.00     0.000 OA
ATOM     46   O  GU6 D   3      43.305 115.046  60.5930  0.00  0.00     0.000 O
ATOM     47   O  GU6 D   3      41.314 113.706  60.7290  0.00  0.00     0.000 OA
ENDBRANCH 38 43
BRANCH 39 48
ATOM     48   O  GU6 D   3      43.049 115.980  63.7170  0.00  0.00     0.000 O
ATOM     49   S  GU6 D   3      42.340 115.049  64.6990  0.00  0.00     0.000 S
ATOM     50   O  GU6 D   3      41.055 114.610  64.1420  0.00  0.00     0.000 OA
ATOM     51   O  GU6 D   3      43.276 113.924  64.8270  0.00  0.00     0.000 OA
ATOM     52   O  GU6 D   3      42.119 115.773  65.9710  0.00  0.00     0.000 O
ENDBRANCH 39 48
BRANCH 41 53
ATOM     53   C  GU6 D   3      43.330 120.944  63.2570  0.00  0.00     0.000 C
ATOM     54   O  GU6 D   3      42.491 121.407  64.2840  0.00  0.00     0.000 O
ATOM     55   S  GU6 D   3      42.700 122.801  64.8900  0.00  0.00     0.000 S
ATOM     56   O  GU6 D   3      42.400 123.781  63.8210  0.00  0.00     0.000 O
ATOM     57   O  GU6 D   3      41.773 122.964  66.0200  0.00  0.00     0.000 OA
ATOM     58   O  GU6 D   3      44.116 122.889  65.3110  0.00  0.00     0.000 OA
ENDBRANCH 41 53
BRANCH 37 59
ATOM     59  O4  Z9K D   4      39.921 118.680  62.1560  0.00  0.00     0.000 O
BRANCH 59 63
ATOM     60  C1  Z9K D   4      36.049 118.450  62.7890  0.00  0.00     0.000 C
ATOM     61  C2  Z9K D   4      36.161 117.818  61.3740  0.00  0.00     0.000 C
ATOM     62  C3  Z9K D   4      37.740 117.744  61.2010  0.00  0.00     0.000 C
ATOM     63  C4  Z9K D   4      38.614 118.995  61.5930  0.00  0.00     0.000 C
ATOM     64  C5  Z9K D   4      38.016 119.930  62.6550  0.00  0.00     0.000 C
ATOM     65  O5  Z9K D   4      37.250 119.022  63.4900  0.00  0.00     0.000 O
ATOM     66   O  Z9K D   4      38.150 117.412  59.8620  0.00  0.00     0.000 O
ATOM     67   C  Z9K D   4      38.194 116.020  59.5910  0.00  0.00     0.000 C
BRANCH 61 68
ATOM     68   O  Z9K D   4      35.714 116.494  61.4780  0.00  0.00     0.000 O
ATOM     69   O  Z9K D   4      35.138 117.487  59.1910  0.00  0.00     0.000 OA
ATOM     70   S  Z9K D   4      34.616 117.140  60.4780  0.00  0.00     0.000 S
ATOM     71   O  Z9K D   4      33.690 117.918  61.2430  0.00  0.00     0.000 OA
ATOM     72   O  Z9K D   4      34.227 115.767  60.5160  0.00  0.00     0.000 OA
ENDBRANCH 61 68
BRANCH 64 73
ATOM     73   C  Z9K D   4      39.116 120.792  63.3110  0.00  0.00     0.000 C
ATOM     74   O  Z9K D   4      39.671 121.738  62.6800  0.00  0.00     0.000 O
ATOM     75   O  Z9K D   4      39.496 120.593  64.4910  0.00  0.00     0.000 OA
ENDBRANCH 64 73
BRANCH 60 76
ATOM     76  O4  Z9L D   5      35.153 119.480  63.2400  0.00  0.00     0.000 O
BRANCH 76 80
ATOM     77  C1  Z9L D   5      32.949 120.745  66.3240  0.00  0.00     0.000 C
ATOM     78  C2  Z9L D   5      34.090 121.845  66.0800  0.00  0.00     0.000 C
ATOM     79  C3  Z9L D   5      34.716 121.561  64.5350  0.00  0.00     0.000 C
ATOM     80  C4  Z9L D   5      34.815 119.916  64.5310  0.00  0.00     0.000 C
ATOM     81  C5  Z9L D   5      33.753 118.795  64.9940  0.00  0.00     0.000 C
ATOM     82  O5  Z9L D   5      33.157 119.279  66.2070  0.00  0.00     0.000 O
ATOM     83   C  Z9L D   5      30.668 120.223  65.6800  0.00  0.00     0.000 C
ATOM     84   C  Z9L D   5      30.668 120.223  65.6800  0.00  0.00     0.000 C
BRANCH 78 85
ATOM     85   O  Z9L D   5      33.492 123.101  66.1070  0.00  0.00     0.000 O
ATOM     86   O  Z9L D   5      33.754 124.423  67.4830  0.00  0.00     0.000 OA
ATOM     87   S  Z9L D   5      34.462 123.183  67.3860  0.00  0.00     0.000 S
ATOM     88   O  Z9L D   5      35.819 123.550  67.0640  0.00  0.00     0.000 OA
ATOM     89   O  Z9L D   5      34.066 122.435  68.5290  0.00  0.00     0.000 OA
ENDBRANCH 78 85
BRANCH 79 90
ATOM     90   O  Z9L D   5      36.051 121.945  64.4490  0.00  0.00     0.000 O
ATOM     91   S  Z9L D   5      35.440 122.846  63.2870  0.00  0.00     0.000 S
ATOM     92   O  Z9L D   5      34.357 123.766  63.5150  0.00  0.00     0.000 OA
ATOM     93   O  Z9L D   5      35.575 122.157  62.0280  0.00  0.00     0.000 O
ATOM     94   O  Z9L D   5      36.655 123.559  63.5110  0.00  0.00     0.000 OA
ENDBRANCH 79 90
BRANCH 81 95
ATOM     95   C  Z9L D   5      34.248 117.194  64.9310  0.00  0.00     0.000 C
ATOM     96   S  Z9L D   5      35.015 115.686  65.9820  0.00  0.00     0.000 S
ATOM     97   O  Z9L D   5      35.213 117.248  65.9460  0.00  0.00     0.000 O
ATOM     98   O  Z9L D   5      35.635 115.162  64.7920  0.00  0.00     0.000 OA
ATOM     99   O  Z9L D   5      33.735 115.234  66.4110  0.00  0.00     0.000 OA
ATOM    100   O  Z9L D   5      36.022 115.802  67.0070  0.00  0.00     0.000 O
ENDBRANCH 81 95
ENDBRANCH 76 80
ENDBRANCH 60 76
ENDBRANCH 59 63
ENDBRANCH 37 59
ENDBRANCH 36 40
ENDBRANCH 23 36
ENDBRANCH 22 26
ENDBRANCH 1 22
TORSDOF 19
ENDMDL
MODEL 92
REMARK VINA RESULT:      -0.4     94.612    101.624
ROOT
ATOM      1  C1  Z9H D   1      77.785  42.629  78.6070  0.00  0.00     0.000 C
ATOM      2  C2  Z9H D   1      76.521  43.494  78.3870  0.00  0.00     0.000 C
ATOM      3  C3  Z9H D   1      75.690  42.987  79.6050  0.00  0.00     0.000 C
ATOM      4  C4  Z9H D   1      75.578  41.412  79.7430  0.00  0.00     0.000 C
ATOM      5  C5  Z9H D   1      76.823  40.444  79.6270  0.00  0.00     0.000 C
ATOM      6  O5  Z9H D   1      77.677  41.183  78.7180  0.00  0.00     0.000 O
ATOM      7   O  Z9H D   1      74.391  43.582  79.6410  0.00  0.00     0.000 O
ATOM      8   C  Z9H D   1      74.252  44.703  80.5300  0.00  0.00     0.000 C
ATOM      9   O  Z9H D   1      74.976  41.175  81.0190  0.00  0.00     0.000 O
ATOM     10   C  Z9H D   1      73.571  40.904  80.9980  0.00  0.00     0.000 C
ENDROOT
BRANCH 2 11
ATOM     11   O  Z9H D   1      76.973  44.770  78.7590  0.00  0.00     0.000 O
ATOM     12   O  Z9H D   1      77.178  46.212  77.5600  0.00  0.00     0.000 OA
ATOM     13   S  Z9H D   1      76.676  44.927  77.2060  0.00  0.00     0.000 S
ATOM     14   O  Z9H D   1      75.254  44.893  77.0130  0.00  0.00     0.000 OA
ATOM     15   O  Z9H D   1      77.641  44.213  76.4030  0.00  0.00     0.000 O
ENDBRANCH 2 11
BRANCH 5 16
ATOM     16   C  Z9H D   1      76.447  38.836  79.3560  0.00  0.00     0.000 C
ATOM     17   S  Z9H D   1      76.965  36.945  79.7970  0.00  0.00     0.000 S
ATOM     18   O  Z9H D   1      76.839  38.333  80.6110  0.00  0.00     0.000 O
ATOM     19   O  Z9H D   1      78.023  36.908  78.8290  0.00  0.00     0.000 O
ATOM     20   O  Z9H D   1      75.676  36.394  79.5640  0.00  0.00     0.000 OA
ATOM     21   O  Z9H D   1      77.404  36.501  81.0880  0.00  0.00     0.000 OA
ENDBRANCH 5 16
BRANCH 1 22
ATOM     22  O4  GU1 D   2      78.540  42.936  79.8340  0.00  0.00     0.000 O
BRANCH 22 26
ATOM     23  C1  GU1 D   2      82.295  43.173  81.5120  0.00  0.00     0.000 C
ATOM     24  C2  GU1 D   2      82.222  43.579  80.0480  0.00  0.00     0.000 C
ATOM     25  C3  GU1 D   2      80.789  43.819  79.6690  0.00  0.00     0.000 C
ATOM     26  C4  GU1 D   2      79.924  42.620  80.0280  0.00  0.00     0.000 C
ATOM     27  C5  GU1 D   2      80.149  42.229  81.4910  0.00  0.00     0.000 C
ATOM     28  O5  GU1 D   2      81.533  41.993  81.7370  0.00  0.00     0.000 O
ATOM     29   O  GU1 D   2      82.955  44.770  79.7890  0.00  0.00     0.000 O
ATOM     30   C  GU1 D   2      84.265  44.541  79.2880  0.00  0.00     0.000 C
ATOM     31   C  GU1 D   2      80.583  45.384  77.8530  0.00  0.00     0.000 C
ATOM     32   O  GU1 D   2      80.723  44.024  78.2540  0.00  0.00     0.000 O
BRANCH 27 33
ATOM     33   C  GU1 D   2      79.395  40.969  81.8430  0.00  0.00     0.000 C
ATOM     34   O  GU1 D   2      79.772  39.918  81.3650  0.00  0.00     0.000 OA
ATOM     35   O  GU1 D   2      78.433  41.010  82.5940  0.00  0.00     0.000 O
ENDBRANCH 27 33
BRANCH 23 36
ATOM     36  O4  GU6 D   3      83.524  42.651  82.0550  0.00  0.00     0.000 O
BRANCH 36 40
ATOM     37  C1  GU6 D   3      86.502  40.191  83.3870  0.00  0.00     0.000 C
ATOM     38  C2  GU6 D   3      86.506  41.572  84.0300  0.00  0.00     0.000 C
ATOM     39  C3  GU6 D   3      85.231  42.295  83.6840  0.00  0.00     0.000 C
ATOM     40  C4  GU6 D   3      84.360  41.692  82.6690  0.00  0.00     0.000 C
ATOM     41  C5  GU6 D   3      85.237  41.054  81.5410  0.00  0.00     0.000 C
ATOM     42  O5  GU6 D   3      86.403  40.348  81.9800  0.00  0.00     0.000 O
BRANCH 38 43
ATOM     43   O  GU6 D   3      86.635  41.466  85.4350  0.00  0.00     0.000 O
ATOM     44   S  GU6 D   3      87.802  42.250  86.0210  0.00  0.00     0.000 S
ATOM     45   O  GU6 D   3      89.031  41.454  85.8560  0.00  0.00     0.000 OA
ATOM     46   O  GU6 D   3      87.936  43.518  85.2810  0.00  0.00     0.000 O
ATOM     47   O  GU6 D   3      87.528  42.519  87.4290  0.00  0.00     0.000 OA
ENDBRANCH 38 43
BRANCH 39 48
ATOM     48   O  GU6 D   3      84.776  43.382  84.4670  0.00  0.00     0.000 O
ATOM     49   S  GU6 D   3      83.735  43.416  85.5860  0.00  0.00     0.000 S
ATOM     50   O  GU6 D   3      84.085  42.448  86.6320  0.00  0.00     0.000 OA
ATOM     51   O  GU6 D   3      83.830  44.795  86.0860  0.00  0.00     0.000 OA
ATOM     52   O  GU6 D   3      82.408  43.091  85.0180  0.00  0.00     0.000 O
ENDBRANCH 39 48
BRANCH 41 53
ATOM     53   C  GU6 D   3      85.019  41.064  80.0520  0.00  0.00     0.000 C
ATOM     54   O  GU6 D   3      83.841  40.300  80.0260  0.00  0.00     0.000 O
ATOM     55   S  GU6 D   3      83.209  39.888  78.6900  0.00  0.00     0.000 S
ATOM     56   O  GU6 D   3      84.160  38.958  78.0360  0.00  0.00     0.000 O
ATOM     57   O  GU6 D   3      81.931  39.216  78.9630  0.00  0.00     0.000 OA
ATOM     58   O  GU6 D   3      83.034  41.120  77.8890  0.00  0.00     0.000 OA
ENDBRANCH 41 53
BRANCH 37 59
ATOM     59  O4  Z9K D   4      85.627  39.106  83.7600  0.00  0.00     0.000 O
BRANCH 59 63
ATOM     60  C1  Z9K D   4      84.336  36.051  85.8690  0.00  0.00     0.000 C
ATOM     61  C2  Z9K D   4      85.775  36.218  86.4310  0.00  0.00     0.000 C
ATOM     62  C3  Z9K D   4      86.225  37.563  85.7110  0.00  0.00     0.000 C
ATOM     63  C4  Z9K D   4      85.938  37.743  84.1720  0.00  0.00     0.000 C
ATOM     64  C5  Z9K D   4      84.748  36.950  83.6100  0.00  0.00     0.000 C
ATOM     65  O5  Z9K D   4      83.833  36.902  84.7360  0.00  0.00     0.000 O
ATOM     66   O  Z9K D   4      87.628  37.846  85.8620  0.00  0.00     0.000 O
ATOM     67   C  Z9K D   4      87.962  38.534  87.0550  0.00  0.00     0.000 C
BRANCH 61 68
ATOM     68   O  Z9K D   4      85.651  36.523  87.7930  0.00  0.00     0.000 O
ATOM     69   O  Z9K D   4      87.755  35.137  87.3420  0.00  0.00     0.000 OA
ATOM     70   S  Z9K D   4      86.412  35.094  87.8380  0.00  0.00     0.000 S
ATOM     71   O  Z9K D   4      85.462  34.052  87.5900  0.00  0.00     0.000 OA
ATOM     72   O  Z9K D   4      86.366  35.460  89.2160  0.00  0.00     0.000 OA
ENDBRANCH 61 68
BRANCH 64 73
ATOM     73   C  Z9K D   4      84.259  37.563  82.2810  0.00  0.00     0.000 C
ATOM     74   O  Z9K D   4      84.938  37.453  81.2190  0.00  0.00     0.000 O
ATOM     75   O  Z9K D   4      83.171  38.184  82.2000  0.00  0.00     0.000 OA
ENDBRANCH 64 73
BRANCH 60 76
ATOM     76  O4  Z9L D   5      83.691  34.852  85.4050  0.00  0.00     0.000 O
BRANCH 76 80
ATOM     77  C1  Z9L D   5      80.248  32.823  85.3740  0.00  0.00     0.000 C
ATOM     78  C2  Z9L D   5      80.562  33.239  83.8570  0.00  0.00     0.000 C
ATOM     79  C3  Z9L D   5      82.195  33.674  83.8010  0.00  0.00     0.000 C
ATOM     80  C4  Z9L D   5      82.336  34.552  85.1880  0.00  0.00     0.000 C
ATOM     81  C5  Z9L D   5      81.819  34.249  86.6850  0.00  0.00     0.000 C
ATOM     82  O5  Z9L D   5      80.503  33.690  86.5520  0.00  0.00     0.000 O
ATOM     83   C  Z9L D   5      80.612  31.007  86.9430  0.00  0.00     0.000 C
ATOM     84   C  Z9L D   5      80.612  31.007  86.9430  0.00  0.00     0.000 C
BRANCH 78 85
ATOM     85   O  Z9L D   5      80.359  32.122  83.0520  0.00  0.00     0.000 O
ATOM     86   O  Z9L D   5      78.936  31.925  81.7690  0.00  0.00     0.000 OA
ATOM     87   S  Z9L D   5      79.222  33.118  82.5070  0.00  0.00     0.000 S
ATOM     88   O  Z9L D   5      79.698  34.060  81.5240  0.00  0.00     0.000 OA
ATOM     89   O  Z9L D   5      78.095  33.315  83.3510  0.00  0.00     0.000 OA
ENDBRANCH 78 85
BRANCH 79 90
ATOM     90   O  Z9L D   5      82.433  34.627  82.8150  0.00  0.00     0.000 O
ATOM     91   S  Z9L D   5      83.421  33.480  82.3210  0.00  0.00     0.000 S
ATOM     92   O  Z9L D   5      82.972  32.141  82.0470  0.00  0.00     0.000 OA
ATOM     93   O  Z9L D   5      84.739  33.726  82.8510  0.00  0.00     0.000 O
ATOM     94   O  Z9L D   5      83.311  34.221  81.1060  0.00  0.00     0.000 OA
ENDBRANCH 79 90
BRANCH 81 95
ATOM     95   C  Z9L D   5      82.069  35.438  87.8410  0.00  0.00     0.000 C
ATOM     96   S  Z9L D   5      81.251  36.992  88.7800  0.00  0.00     0.000 S
ATOM     97   O  Z9L D   5      81.197  36.404  87.3200  0.00  0.00     0.000 O
ATOM     98   O  Z9L D   5      82.551  37.591  88.9380  0.00  0.00     0.000 OA
ATOM     99   O  Z9L D   5      80.682  36.174  89.7980  0.00  0.00     0.000 OA
ATOM    100   O  Z9L D   5      80.370  37.966  88.1840  0.00  0.00     0.000 O
ENDBRANCH 81 95
ENDBRANCH 76 80
ENDBRANCH 60 76
ENDBRANCH 59 63
ENDBRANCH 37 59
ENDBRANCH 36 40
ENDBRANCH 23 36
ENDBRANCH 22 26
ENDBRANCH 1 22
TORSDOF 19
ENDMDL
MODEL 93
REMARK VINA RESULT:      -0.4    150.812    155.143
ROOT
ATOM      1  C1  Z9H D   1      66.239 115.677 130.4560  0.00  0.00     0.000 C
ATOM      2  C2  Z9H D   1      67.456 116.424 131.0520  0.00  0.00     0.000 C
ATOM      3  C3  Z9H D   1      68.400 116.336 129.8130  0.00  0.00     0.000 C
ATOM      4  C4  Z9H D   1      68.566 114.890 129.1870  0.00  0.00     0.000 C
ATOM      5  C5  Z9H D   1      67.343 113.937 128.8760  0.00  0.00     0.000 C
ATOM      6  O5  Z9H D   1      66.396 114.344 129.8950  0.00  0.00     0.000 O
ATOM      7   O  Z9H D   1      69.680 116.910 130.0850  0.00  0.00     0.000 O
ATOM      8   C  Z9H D   1      69.862 118.258 129.6190  0.00  0.00     0.000 C
ATOM      9   O  Z9H D   1      69.279 115.077 127.9600  0.00  0.00     0.000 O
ATOM     10   C  Z9H D   1      70.684 114.812 128.0160  0.00  0.00     0.000 C
ENDROOT
BRANCH 2 11
ATOM     11   O  Z9H D   1      67.002 117.752 131.0720  0.00  0.00     0.000 O
ATOM     12   O  Z9H D   1      66.655 118.729 132.6480  0.00  0.00     0.000 OA
ATOM     13   S  Z9H D   1      67.161 117.399 132.6130  0.00  0.00     0.000 S
ATOM     14   O  Z9H D   1      68.561 117.302 132.9110  0.00  0.00     0.000 OA
ATOM     15   O  Z9H D   1      66.151 116.464 133.0530  0.00  0.00     0.000 O
ENDBRANCH 2 11
BRANCH 5 16
ATOM     16   C  Z9H D   1      67.739 112.327 128.6480  0.00  0.00     0.000 C
ATOM     17   S  Z9H D   1      67.292 110.672 127.5990  0.00  0.00     0.000 S
ATOM     18   O  Z9H D   1      67.434 112.247 127.2760  0.00  0.00     0.000 O
ATOM     19   O  Z9H D   1      66.179 110.327 128.4370  0.00  0.00     0.000 O
ATOM     20   O  Z9H D   1      68.577 110.080 127.7270  0.00  0.00     0.000 OA
ATOM     21   O  Z9H D   1      66.940 110.659 126.2090  0.00  0.00     0.000 OA
ENDBRANCH 5 16
BRANCH 1 22
ATOM     22  O4  GU1 D   2      65.581 116.365 129.3310  0.00  0.00     0.000 O
BRANCH 22 26
ATOM     23  C1  GU1 D   2      61.974 117.121 127.4900  0.00  0.00     0.000 C
ATOM     24  C2  GU1 D   2      61.910 117.022 129.0070  0.00  0.00     0.000 C
ATOM     25  C3  GU1 D   2      63.297 117.132 129.5710  0.00  0.00     0.000 C
ATOM     26  C4  GU1 D   2      64.230 116.122 128.9200  0.00  0.00     0.000 C
ATOM     27  C5  GU1 D   2      64.142 116.234 127.3950  0.00  0.00     0.000 C
ATOM     28  O5  GU1 D   2      62.793 116.085 126.9610  0.00  0.00     0.000 O
ATOM     29   O  GU1 D   2      61.116 118.058 129.5740  0.00  0.00     0.000 O
ATOM     30   C  GU1 D   2      59.778 117.670 129.8520  0.00  0.00     0.000 C
ATOM     31   C  GU1 D   2      63.295 118.012 131.8110  0.00  0.00     0.000 C
ATOM     32   O  GU1 D   2      63.236 116.859 130.9750  0.00  0.00     0.000 O
BRANCH 27 33
ATOM     33   C  GU1 D   2      64.966 115.164 126.7200  0.00  0.00     0.000 C
ATOM     34   O  GU1 D   2      64.586 114.013 126.7870  0.00  0.00     0.000 OA
ATOM     35   O  GU1 D   2      65.988 115.455 126.1180  0.00  0.00     0.000 O
ENDBRANCH 27 33
BRANCH 23 36
ATOM     36  O4  GU6 D   3      60.814 116.801 126.6980  0.00  0.00     0.000 O
BRANCH 36 40
ATOM     37  C1  GU6 D   3      58.045 114.898 124.3710  0.00  0.00     0.000 C
ATOM     38  C2  GU6 D   3      58.044 116.414 124.2200  0.00  0.00     0.000 C
ATOM     39  C3  GU6 D   3      59.260 116.991 124.8960  0.00  0.00     0.000 C
ATOM     40  C4  GU6 D   3      60.066 116.092 125.7300  0.00  0.00     0.000 C
ATOM     41  C5  GU6 D   3      59.123 115.111 126.5030  0.00  0.00     0.000 C
ATOM     42  O5  GU6 D   3      58.023 114.582 125.7550  0.00  0.00     0.000 O
BRANCH 38 43
ATOM     43   O  GU6 D   3      58.034 116.778 122.8530  0.00  0.00     0.000 O
ATOM     44   S  GU6 D   3      56.892 117.703 122.4550  0.00  0.00     0.000 S
ATOM     45   O  GU6 D   3      55.683 116.890 122.2400  0.00  0.00     0.000 OA
ATOM     46   O  GU6 D   3      56.653 118.655 123.5560  0.00  0.00     0.000 O
ATOM     47   O  GU6 D   3      57.271 118.425 121.2440  0.00  0.00     0.000 OA
ENDBRANCH 38 43
BRANCH 39 48
ATOM     48   O  GU6 D   3      59.738 118.279 124.5580  0.00  0.00     0.000 O
ATOM     49   S  GU6 D   3      60.865 118.688 123.6110  0.00  0.00     0.000 S
ATOM     50   O  GU6 D   3      60.639 118.117 122.2780  0.00  0.00     0.000 OA
ATOM     51   O  GU6 D   3      60.761 120.154 123.5850  0.00  0.00     0.000 OA
ATOM     52   O  GU6 D   3      62.152 118.204 124.1580  0.00  0.00     0.000 O
ENDBRANCH 39 48
BRANCH 41 53
ATOM     53   C  GU6 D   3      59.219 114.630 127.9260  0.00  0.00     0.000 C
ATOM     54   O  GU6 D   3      60.415 113.905 127.8030  0.00  0.00     0.000 O
ATOM     55   S  GU6 D   3      60.948 113.078 128.9800  0.00  0.00     0.000 S
ATOM     56   O  GU6 D   3      59.979 111.981 129.2050  0.00  0.00     0.000 O
ATOM     57   O  GU6 D   3      62.267 112.539 128.6150  0.00  0.00     0.000 OA
ATOM     58   O  GU6 D   3      61.017 113.977 130.1540  0.00  0.00     0.000 OA
ENDBRANCH 41 53
BRANCH 37 59
ATOM     59  O4  Z9K D   4      58.986 114.003 123.7410  0.00  0.00     0.000 O
BRANCH 59 63
ATOM     60  C1  Z9K D   4      60.535 111.827 120.8580  0.00  0.00     0.000 C
ATOM     61  C2  Z9K D   4      59.130 112.143 120.2760  0.00  0.00     0.000 C
ATOM     62  C3  Z9K D   4      58.579 113.170 121.3570  0.00  0.00     0.000 C
ATOM     63  C4  Z9K D   4      58.759 112.844 122.8880  0.00  0.00     0.000 C
ATOM     64  C5  Z9K D   4      59.942 111.933 123.2490  0.00  0.00     0.000 C
ATOM     65  O5  Z9K D   4      60.929 112.272 122.2400  0.00  0.00     0.000 O
ATOM     66   O  Z9K D   4      57.178 113.461 121.2030  0.00  0.00     0.000 O
ATOM     67   C  Z9K D   4      56.892 114.495 120.2760  0.00  0.00     0.000 C
BRANCH 61 68
ATOM     68   O  Z9K D   4      59.328 112.877 119.0990  0.00  0.00     0.000 O
ATOM     69   O  Z9K D   4      57.267 111.370 118.9140  0.00  0.00     0.000 OA
ATOM     70   S  Z9K D   4      58.640 111.523 118.5360  0.00  0.00     0.000 S
ATOM     71   O  Z9K D   4      59.620 110.481 118.5070  0.00  0.00     0.000 OA
ATOM     72   O  Z9K D   4      58.759 112.320 117.3580  0.00  0.00     0.000 OA
ENDBRANCH 61 68
BRANCH 64 73
ATOM     73   C  Z9K D   4      60.320 112.088 124.7380  0.00  0.00     0.000 C
ATOM     74   O  Z9K D   4      59.583 111.619 125.6530  0.00  0.00     0.000 O
ATOM     75   O  Z9K D   4      61.370 112.676 125.0960  0.00  0.00     0.000 OA
ENDBRANCH 64 73
BRANCH 60 76
ATOM     76  O4  Z9L D   5      61.199 110.555 120.9550  0.00  0.00     0.000 O
BRANCH 76 80
ATOM     77  C1  Z9L D   5      64.738 108.714 120.7210  0.00  0.00     0.000 C
ATOM     78  C2  Z9L D   5      64.228 108.561 122.2340  0.00  0.00     0.000 C
ATOM     79  C3  Z9L D   5      62.574 108.917 122.2270  0.00  0.00     0.000 C
ATOM     80  C4  Z9L D   5      62.536 110.225 121.2260  0.00  0.00     0.000 C
ATOM     81  C5  Z9L D   5      63.238 110.479 119.7970  0.00  0.00     0.000 C
ATOM     82  O5  Z9L D   5      64.563 109.936 119.8950  0.00  0.00     0.000 O
ATOM     83   C  Z9L D   5      64.670 107.562 118.5850  0.00  0.00     0.000 C
ATOM     84   C  Z9L D   5      64.670 107.562 118.5850  0.00  0.00     0.000 C
BRANCH 78 85
ATOM     85   O  Z9L D   5      64.409 107.236 122.6190  0.00  0.00     0.000 O
ATOM     86   O  Z9L D   5      65.685 106.628 123.9270  0.00  0.00     0.000 OA
ATOM     87   S  Z9L D   5      65.409 107.998 123.6200  0.00  0.00     0.000 S
ATOM     88   O  Z9L D   5      64.764 108.523 124.7980  0.00  0.00     0.000 OA
ATOM     89   O  Z9L D   5      66.611 108.504 123.0510  0.00  0.00     0.000 OA
ENDBRANCH 78 85
BRANCH 79 90
ATOM     90   O  Z9L D   5      62.167 109.455 123.4440  0.00  0.00     0.000 O
ATOM     91   S  Z9L D   5      61.192 108.198 123.3690  0.00  0.00     0.000 S
ATOM     92   O  Z9L D   5      61.680 106.853 123.2140  0.00  0.00     0.000 OA
ATOM     93   O  Z9L D   5      59.936 108.602 122.7880  0.00  0.00     0.000 O
ATOM     94   O  Z9L D   5      61.114 108.461 124.7690  0.00  0.00     0.000 OA
ENDBRANCH 79 90
BRANCH 81 95
ATOM     95   C  Z9L D   5      63.045 111.995 119.1040  0.00  0.00     0.000 C
ATOM     96   S  Z9L D   5      63.868 113.794 118.8720  0.00  0.00     0.000 S
ATOM     97   O  Z9L D   5      63.797 112.730 120.0320  0.00  0.00     0.000 O
ATOM     98   O  Z9L D   5      62.560 114.387 118.7730  0.00  0.00     0.000 OA
ATOM     99   O  Z9L D   5      64.592 113.397 117.7120  0.00  0.00     0.000 OA
ATOM    100   O  Z9L D   5      64.620 114.511 119.8730  0.00  0.00     0.000 O
ENDBRANCH 81 95
ENDBRANCH 76 80
ENDBRANCH 60 76
ENDBRANCH 59 63
ENDBRANCH 37 59
ENDBRANCH 36 40
ENDBRANCH 23 36
ENDBRANCH 22 26
ENDBRANCH 1 22
TORSDOF 19
ENDMDL
MODEL 94
REMARK VINA RESULT:      -0.4    138.624    142.600
ROOT
ATOM      1  C1  Z9H D   1      41.699 119.873 102.4480  0.00  0.00     0.000 C
ATOM      2  C2  Z9H D   1      40.372 120.107 101.6860  0.00  0.00     0.000 C
ATOM      3  C3  Z9H D   1      39.829 121.291 102.5440  0.00  0.00     0.000 C
ATOM      4  C4  Z9H D   1      39.831 121.052 104.1100  0.00  0.00     0.000 C
ATOM      5  C5  Z9H D   1      41.077 120.478 104.8950  0.00  0.00     0.000 C
ATOM      6  O5  Z9H D   1      41.692 119.641 103.8840  0.00  0.00     0.000 O
ATOM      7   O  Z9H D   1      38.534 121.707 102.1060  0.00  0.00     0.000 O
ATOM      8   C  Z9H D   1      38.516 122.856 101.2420  0.00  0.00     0.000 C
ATOM      9   O  Z9H D   1      39.509 122.318 104.6970  0.00  0.00     0.000 O
ATOM     10   C  Z9H D   1      38.144 122.485 105.0940  0.00  0.00     0.000 C
ENDROOT
BRANCH 2 11
ATOM     11   O  Z9H D   1      40.820 120.695 100.4930  0.00  0.00     0.000 O
ATOM     12   O  Z9H D   1      40.709 119.872  98.7990  0.00  0.00     0.000 OA
ATOM     13   S  Z9H D   1      40.215 119.308 100.0100  0.00  0.00     0.000 S
ATOM     14   O  Z9H D   1      38.787 119.370 100.1390  0.00  0.00     0.000 OA
ATOM     15   O  Z9H D   1      41.039 118.194 100.4200  0.00  0.00     0.000 O
ENDBRANCH 2 11
BRANCH 5 16
ATOM     16   C  Z9H D   1      40.740 119.890 106.4260  0.00  0.00     0.000 C
ATOM     17   S  Z9H D   1      41.450 119.719 108.2980  0.00  0.00     0.000 S
ATOM     18   O  Z9H D   1      41.434 120.867 107.1640  0.00  0.00     0.000 O
ATOM     19   O  Z9H D   1      42.261 118.576 107.9880  0.00  0.00     0.000 O
ATOM     20   O  Z9H D   1      40.175 119.623 108.9180  0.00  0.00     0.000 OA
ATOM     21   O  Z9H D   1      42.194 120.735 108.9830  0.00  0.00     0.000 OA
ENDBRANCH 5 16
BRANCH 1 22
ATOM     22  O4  GU1 D   2      42.666 120.982 102.3610  0.00  0.00     0.000 O
BRANCH 22 26
ATOM     23  C1  GU1 D   2      46.664 121.956 102.1580  0.00  0.00     0.000 C
ATOM     24  C2  GU1 D   2      46.281 120.669 101.4420  0.00  0.00     0.000 C
ATOM     25  C3  GU1 D   2      44.792 120.626 101.2580  0.00  0.00     0.000 C
ATOM     26  C4  GU1 D   2      44.074 120.839 102.5820  0.00  0.00     0.000 C
ATOM     27  C5  GU1 D   2      44.605 122.100 103.2700  0.00  0.00     0.000 C
ATOM     28  O5  GU1 D   2      46.019 122.026 103.4250  0.00  0.00     0.000 O
ATOM     29   O  GU1 D   2      46.891 120.573 100.1600  0.00  0.00     0.000 O
ATOM     30   C  GU1 D   2      48.084 119.803 100.1470  0.00  0.00     0.000 C
ATOM     31   C  GU1 D   2      44.154 119.305  99.3500  0.00  0.00     0.000 C
ATOM     32   O  GU1 D   2      44.437 119.337 100.7470  0.00  0.00     0.000 O
BRANCH 27 33
ATOM     33   C  GU1 D   2      43.997 122.272 104.6420  0.00  0.00     0.000 C
ATOM     34   O  GU1 D   2      44.324 121.499 105.5190  0.00  0.00     0.000 OA
ATOM     35   O  GU1 D   2      43.199 123.170 104.8600  0.00  0.00     0.000 O
ENDBRANCH 27 33
BRANCH 23 36
ATOM     36  O4  GU6 D   3      48.000 122.125 102.6720  0.00  0.00     0.000 O
BRANCH 36 40
ATOM     37  C1  GU6 D   3      51.298 122.264 105.0800  0.00  0.00     0.000 C
ATOM     38  C2  GU6 D   3      51.364 123.207 103.8850  0.00  0.00     0.000 C
ATOM     39  C3  GU6 D   3      50.012 123.282 103.2250  0.00  0.00     0.000 C
ATOM     40  C4  GU6 D   3      48.986 122.329 103.6630  0.00  0.00     0.000 C
ATOM     41  C5  GU6 D   3      49.650 120.941 103.9460  0.00  0.00     0.000 C
ATOM     42  O5  GU6 D   3      50.913 120.978 104.6200  0.00  0.00     0.000 O
BRANCH 38 43
ATOM     43   O  GU6 D   3      51.775 124.498 104.2920  0.00  0.00     0.000 O
ATOM     44   S  GU6 D   3      52.996 125.032 103.5540  0.00  0.00     0.000 S
ATOM     45   O  GU6 D   3      54.204 124.460 104.1730  0.00  0.00     0.000 OA
ATOM     46   O  GU6 D   3      52.918 124.605 102.1450  0.00  0.00     0.000 O
ATOM     47   O  GU6 D   3      52.995 126.489 103.6360  0.00  0.00     0.000 OA
ENDBRANCH 38 43
BRANCH 39 48
ATOM     48   O  GU6 D   3      49.670 124.372 102.3900  0.00  0.00     0.000 O
ATOM     49   S  GU6 D   3      48.873 125.637 102.7050  0.00  0.00     0.000 S
ATOM     50   O  GU6 D   3      49.469 126.339 103.8470  0.00  0.00     0.000 OA
ATOM     51   O  GU6 D   3      49.000 126.426 101.4720  0.00  0.00     0.000 OA
ATOM     52   O  GU6 D   3      47.476 125.259 103.0150  0.00  0.00     0.000 O
ENDBRANCH 39 48
BRANCH 41 53
ATOM     53   C  GU6 D   3      49.139 119.563 103.6210  0.00  0.00     0.000 C
ATOM     54   O  GU6 D   3      48.020 119.570 104.4690  0.00  0.00     0.000 O
ATOM     55   S  GU6 D   3      47.156 118.311 104.6270  0.00  0.00     0.000 S
ATOM     56   O  GU6 D   3      48.002 117.293 105.2900  0.00  0.00     0.000 O
ATOM     57   O  GU6 D   3      45.992 118.644 105.4620  0.00  0.00     0.000 OA
ATOM     58   O  GU6 D   3      46.763 117.875 103.2690  0.00  0.00     0.000 OA
ENDBRANCH 41 53
BRANCH 37 59
ATOM     59  O4  Z9K D   4      50.568 122.521 106.2980  0.00  0.00     0.000 O
BRANCH 59 63
ATOM     60  C1  Z9K D   4      49.887 124.042 109.8580  0.00  0.00     0.000 C
ATOM     61  C2  Z9K D   4      51.404 124.334 109.6910  0.00  0.00     0.000 C
ATOM     62  C3  Z9K D   4      51.633 123.886 108.1820  0.00  0.00     0.000 C
ATOM     63  C4  Z9K D   4      51.018 122.522 107.6850  0.00  0.00     0.000 C
ATOM     64  C5  Z9K D   4      49.771 122.031 108.4350  0.00  0.00     0.000 C
ATOM     65  O5  Z9K D   4      49.118 123.270 108.8210  0.00  0.00     0.000 O
ATOM     66   O  Z9K D   4      53.022 123.821 107.8130  0.00  0.00     0.000 O
ATOM     67   C  Z9K D   4      53.573 125.056 107.3850  0.00  0.00     0.000 C
BRANCH 61 68
ATOM     68   O  Z9K D   4      51.560 125.726 109.7160  0.00  0.00     0.000 O
ATOM     69   O  Z9K D   4      53.570 124.550 110.7770  0.00  0.00     0.000 OA
ATOM     70   S  Z9K D   4      52.365 125.275 111.0470  0.00  0.00     0.000 S
ATOM     71   O  Z9K D   4      51.423 124.976 112.0820  0.00  0.00     0.000 OA
ATOM     72   O  Z9K D   4      52.598 126.683 111.0090  0.00  0.00     0.000 OA
ENDBRANCH 61 68
BRANCH 64 73
ATOM     73   C  Z9K D   4      48.984 121.012 107.5850  0.00  0.00     0.000 C
ATOM     74   O  Z9K D   4      47.877 121.318 107.0530  0.00  0.00     0.000 O
ATOM     75   O  Z9K D   4      49.411 119.849 107.3820  0.00  0.00     0.000 OA
ENDBRANCH 64 73
BRANCH 60 76
ATOM     76  O4  Z9L D   5      49.210 123.439 110.9740  0.00  0.00     0.000 O
BRANCH 76 80
ATOM     77  C1  Z9L D   5      45.860 123.486 113.1530  0.00  0.00     0.000 C
ATOM     78  C2  Z9L D   5      45.922 122.062 112.4170  0.00  0.00     0.000 C
ATOM     79  C3  Z9L D   5      47.515 121.860 111.8840  0.00  0.00     0.000 C
ATOM     80  C4  Z9L D   5      47.847 123.365 111.3020  0.00  0.00     0.000 C
ATOM     81  C5  Z9L D   5      47.578 124.823 111.9360  0.00  0.00     0.000 C
ATOM     82  O5  Z9L D   5      46.273 124.770 112.5320  0.00  0.00     0.000 O
ATOM     83   C  Z9L D   5      46.513 124.565 115.2270  0.00  0.00     0.000 C
ATOM     84   C  Z9L D   5      46.513 124.565 115.2270  0.00  0.00     0.000 C
BRANCH 78 85
ATOM     85   O  Z9L D   5      45.627 121.078 113.3560  0.00  0.00     0.000 O
ATOM     86   O  Z9L D   5      44.025 120.008 113.3710  0.00  0.00     0.000 OA
ATOM     87   S  Z9L D   5      44.390 120.931 112.3400  0.00  0.00     0.000 S
ATOM     88   O  Z9L D   5      44.678 120.111 111.1890  0.00  0.00     0.000 OA
ATOM     89   O  Z9L D   5      43.405 121.956 112.3890  0.00  0.00     0.000 OA
ENDBRANCH 78 85
BRANCH 79 90
ATOM     90   O  Z9L D   5      47.570 121.073 110.7370  0.00  0.00     0.000 O
ATOM     91   S  Z9L D   5      48.515 120.219 111.6920  0.00  0.00     0.000 S
ATOM     92   O  Z9L D   5      48.078 119.732 112.9740  0.00  0.00     0.000 OA
ATOM     93   O  Z9L D   5      49.888 120.603 111.4740  0.00  0.00     0.000 O
ATOM     94   O  Z9L D   5      48.200 119.214 110.7290  0.00  0.00     0.000 OA
ENDBRANCH 79 90
BRANCH 81 95
ATOM     95   C  Z9L D   5      47.974 126.155 110.9970  0.00  0.00     0.000 C
ATOM     96   S  Z9L D   5      47.269 127.515 109.7240  0.00  0.00     0.000 S
ATOM     97   O  Z9L D   5      47.000 125.989 110.0020  0.00  0.00     0.000 O
ATOM     98   O  Z9L D   5      48.559 127.600 109.0890  0.00  0.00     0.000 OA
ATOM     99   O  Z9L D   5      46.896 128.409 110.7680  0.00  0.00     0.000 OA
ATOM    100   O  Z9L D   5      46.274 127.280 108.7060  0.00  0.00     0.000 O
ENDBRANCH 81 95
ENDBRANCH 76 80
ENDBRANCH 60 76
ENDBRANCH 59 63
ENDBRANCH 37 59
ENDBRANCH 36 40
ENDBRANCH 23 36
ENDBRANCH 22 26
ENDBRANCH 1 22
TORSDOF 19
ENDMDL
MODEL 95
REMARK VINA RESULT:      -0.4    142.168    147.003
ROOT
ATOM      1  C1  Z9H D   1      59.231 144.423  88.1560  0.00  0.00     0.000 C
ATOM      2  C2  Z9H D   1      59.555 145.864  87.6960  0.00  0.00     0.000 C
ATOM      3  C3  Z9H D   1      58.265 146.125  86.8590  0.00  0.00     0.000 C
ATOM      4  C4  Z9H D   1      57.902 145.001  85.8030  0.00  0.00     0.000 C
ATOM      5  C5  Z9H D   1      57.895 143.459  86.1500  0.00  0.00     0.000 C
ATOM      6  O5  Z9H D   1      58.912 143.392  87.1810  0.00  0.00     0.000 O
ATOM      7   O  Z9H D   1      58.297 147.407  86.2280  0.00  0.00     0.000 O
ATOM      8   C  Z9H D   1      57.576 148.447  86.9110  0.00  0.00     0.000 C
ATOM      9   O  Z9H D   1      56.596 145.331  85.3170  0.00  0.00     0.000 O
ATOM     10   C  Z9H D   1      56.559 146.009  84.0580  0.00  0.00     0.000 C
ENDROOT
BRANCH 2 11
ATOM     11   O  Z9H D   1      59.376 146.596  88.8800  0.00  0.00     0.000 O
ATOM     12   O  Z9H D   1      60.773 147.447  89.8200  0.00  0.00     0.000 OA
ATOM     13   S  Z9H D   1      60.932 146.742  88.5930  0.00  0.00     0.000 S
ATOM     14   O  Z9H D   1      61.102 147.595  87.4520  0.00  0.00     0.000 OA
ATOM     15   O  Z9H D   1      61.634 145.499  88.8140  0.00  0.00     0.000 O
ENDBRANCH 2 11
BRANCH 5 16
ATOM     16   C  Z9H D   1      57.927 142.434  84.8270  0.00  0.00     0.000 C
ATOM     17   S  Z9H D   1      57.254 140.683  84.1050  0.00  0.00     0.000 S
ATOM     18   O  Z9H D   1      56.633 141.899  84.9680  0.00  0.00     0.000 O
ATOM     19   O  Z9H D   1      58.252 139.910  84.7860  0.00  0.00     0.000 O
ATOM     20   O  Z9H D   1      57.354 141.054  82.7370  0.00  0.00     0.000 OA
ATOM     21   O  Z9H D   1      55.935 140.166  84.3230  0.00  0.00     0.000 OA
ENDBRANCH 5 16
BRANCH 1 22
ATOM     22  O4  GU1 D   2      58.070 144.307  89.0570  0.00  0.00     0.000 O
BRANCH 22 26
ATOM     23  C1  GU1 D   2      56.494 142.274  92.2750  0.00  0.00     0.000 C
ATOM     24  C2  GU1 D   2      58.002 142.468  92.3180  0.00  0.00     0.000 C
ATOM     25  C3  GU1 D   2      58.395 143.525  91.3260  0.00  0.00     0.000 C
ATOM     26  C4  GU1 D   2      57.847 143.204  89.9430  0.00  0.00     0.000 C
ATOM     27  C5  GU1 D   2      56.344 142.923  90.0270  0.00  0.00     0.000 C
ATOM     28  O5  GU1 D   2      56.082 141.887  90.9690  0.00  0.00     0.000 O
ATOM     29   O  GU1 D   2      58.449 142.878  93.6040  0.00  0.00     0.000 O
ATOM     30   C  GU1 D   2      58.924 141.812  94.4140  0.00  0.00     0.000 C
ATOM     31   C  GU1 D   2      60.428 144.648  91.9590  0.00  0.00     0.000 C
ATOM     32   O  GU1 D   2      59.824 143.566  91.2530  0.00  0.00     0.000 O
BRANCH 27 33
ATOM     33   C  GU1 D   2      55.794 142.484  88.6910  0.00  0.00     0.000 C
ATOM     34   O  GU1 D   2      56.101 141.386  88.2720  0.00  0.00     0.000 OA
ATOM     35   O  GU1 D   2      55.056 143.217  88.0510  0.00  0.00     0.000 O
ENDBRANCH 27 33
BRANCH 23 36
ATOM     36  O4  GU6 D   3      55.892 141.152  92.9500  0.00  0.00     0.000 O
BRANCH 36 40
ATOM     37  C1  GU6 D   3      54.237 137.522  93.8330  0.00  0.00     0.000 C
ATOM     38  C2  GU6 D   3      53.811 138.642  94.7750  0.00  0.00     0.000 C
ATOM     39  C3  GU6 D   3      54.248 139.969  94.2110  0.00  0.00     0.000 C
ATOM     40  C4  GU6 D   3      55.149 139.954  93.0540  0.00  0.00     0.000 C
ATOM     41  C5  GU6 D   3      56.177 138.785  93.2060  0.00  0.00     0.000 C
ATOM     42  O5  GU6 D   3      55.650 137.551  93.7060  0.00  0.00     0.000 O
BRANCH 38 43
ATOM     43   O  GU6 D   3      52.408 138.632  94.9560  0.00  0.00     0.000 O
ATOM     44   S  GU6 D   3      51.963 138.547  96.4100  0.00  0.00     0.000 S
ATOM     45   O  GU6 D   3      52.020 137.137  96.8350  0.00  0.00     0.000 OA
ATOM     46   O  GU6 D   3      52.889 139.344  97.2340  0.00  0.00     0.000 O
ATOM     47   O  GU6 D   3      50.609 139.081  96.5200  0.00  0.00     0.000 OA
ENDBRANCH 38 43
BRANCH 39 48
ATOM     48   O  GU6 D   3      53.634 141.173  94.6290  0.00  0.00     0.000 O
ATOM     49   S  GU6 D   3      52.522 141.987  93.9700  0.00  0.00     0.000 S
ATOM     50   O  GU6 D   3      51.345 141.140  93.7390  0.00  0.00     0.000 OA
ATOM     51   O  GU6 D   3      52.238 143.030  94.9640  0.00  0.00     0.000 OA
ATOM     52   O  GU6 D   3      53.018 142.525  92.6840  0.00  0.00     0.000 O
ENDBRANCH 39 48
BRANCH 41 53
ATOM     53   C  GU6 D   3      57.648 138.769  92.8860  0.00  0.00     0.000 C
ATOM     54   O  GU6 D   3      57.543 138.937  91.4960  0.00  0.00     0.000 O
ATOM     55   S  GU6 D   3      58.793 138.880  90.6090  0.00  0.00     0.000 S
ATOM     56   O  GU6 D   3      59.308 137.493  90.6840  0.00  0.00     0.000 O
ATOM     57   O  GU6 D   3      58.405 139.216  89.2310  0.00  0.00     0.000 OA
ATOM     58   O  GU6 D   3      59.770 139.842  91.1650  0.00  0.00     0.000 OA
ENDBRANCH 41 53
BRANCH 37 59
ATOM     59  O4  Z9K D   4      53.692 137.295  92.5160  0.00  0.00     0.000 O
BRANCH 59 63
ATOM     60  C1  Z9K D   4      51.134 136.017  89.8200  0.00  0.00     0.000 C
ATOM     61  C2  Z9K D   4      50.623 135.284  91.0910  0.00  0.00     0.000 C
ATOM     62  C3  Z9K D   4      51.541 135.944  92.2090  0.00  0.00     0.000 C
ATOM     63  C4  Z9K D   4      53.086 136.102  91.9390  0.00  0.00     0.000 C
ATOM     64  C5  Z9K D   4      53.507 136.199  90.4650  0.00  0.00     0.000 C
ATOM     65  O5  Z9K D   4      52.374 136.868  89.8500  0.00  0.00     0.000 O
ATOM     66   O  Z9K D   4      51.454 135.278  93.4820  0.00  0.00     0.000 O
ATOM     67   C  Z9K D   4      50.381 135.715  94.3000  0.00  0.00     0.000 C
BRANCH 61 68
ATOM     68   O  Z9K D   4      49.320 135.739  91.3320  0.00  0.00     0.000 O
ATOM     69   O  Z9K D   4      49.584 133.287  92.0140  0.00  0.00     0.000 OA
ATOM     70   S  Z9K D   4      49.072 134.171  91.0110  0.00  0.00     0.000 S
ATOM     71   O  Z9K D   4      49.151 133.968  89.5970  0.00  0.00     0.000 OA
ATOM     72   O  Z9K D   4      47.763 134.625  91.3520  0.00  0.00     0.000 OA
ENDBRANCH 61 68
BRANCH 64 73
ATOM     73   C  Z9K D   4      54.905 136.838  90.3340  0.00  0.00     0.000 C
ATOM     74   O  Z9K D   4      55.050 138.013  89.8880  0.00  0.00     0.000 O
ATOM     75   O  Z9K D   4      55.947 136.223  90.6700  0.00  0.00     0.000 OA
ENDBRANCH 64 73
BRANCH 60 76
ATOM     76  O4  Z9L D   5      51.404 135.468  88.5190  0.00  0.00     0.000 O
BRANCH 76 80
ATOM     77  C1  Z9L D   5      51.209 136.176  84.5900  0.00  0.00     0.000 C
ATOM     78  C2  Z9L D   5      52.762 136.048  84.9680  0.00  0.00     0.000 C
ATOM     79  C3  Z9L D   5      52.833 135.307  86.4870  0.00  0.00     0.000 C
ATOM     80  C4  Z9L D   5      51.615 136.087  87.2760  0.00  0.00     0.000 C
ATOM     81  C5  Z9L D   5      50.108 136.428  86.8140  0.00  0.00     0.000 C
ATOM     82  O5  Z9L D   5      50.190 136.842  85.4420  0.00  0.00     0.000 O
ATOM     83   C  Z9L D   5      49.337 134.829  83.8350  0.00  0.00     0.000 C
ATOM     84   C  Z9L D   5      49.337 134.829  83.8350  0.00  0.00     0.000 C
BRANCH 78 85
ATOM     85   O  Z9L D   5      53.368 135.220  84.0280  0.00  0.00     0.000 O
ATOM     86   O  Z9L D   5      54.646 135.795  82.7060  0.00  0.00     0.000 OA
ATOM     87   S  Z9L D   5      54.117 136.615  83.7530  0.00  0.00     0.000 S
ATOM     88   O  Z9L D   5      55.230 136.861  84.6350  0.00  0.00     0.000 OA
ATOM     89   O  Z9L D   5      53.358 137.622  83.0930  0.00  0.00     0.000 OA
ENDBRANCH 78 85
BRANCH 79 90
ATOM     90   O  Z9L D   5      53.961 135.712  87.1960  0.00  0.00     0.000 O
ATOM     91   S  Z9L D   5      54.204 134.138  87.1830  0.00  0.00     0.000 S
ATOM     92   O  Z9L D   5      54.259 133.377  85.9620  0.00  0.00     0.000 OA
ATOM     93   O  Z9L D   5      53.671 133.562  88.3920  0.00  0.00     0.000 O
ATOM     94   O  Z9L D   5      55.533 134.569  87.4720  0.00  0.00     0.000 OA
ENDBRANCH 79 90
BRANCH 81 95
ATOM     95   C  Z9L D   5      49.167 137.332  87.8670  0.00  0.00     0.000 C
ATOM     96   S  Z9L D   5      48.537 139.167  88.3180  0.00  0.00     0.000 S
ATOM     97   O  Z9L D   5      49.875 138.540  87.7730  0.00  0.00     0.000 O
ATOM     98   O  Z9L D   5      48.444 138.802  89.7080  0.00  0.00     0.000 OA
ATOM     99   O  Z9L D   5      47.412 139.076  87.4500  0.00  0.00     0.000 OA
ATOM    100   O  Z9L D   5      49.320 140.375  88.2160  0.00  0.00     0.000 O
ENDBRANCH 81 95
ENDBRANCH 76 80
ENDBRANCH 60 76
ENDBRANCH 59 63
ENDBRANCH 37 59
ENDBRANCH 36 40
ENDBRANCH 23 36
ENDBRANCH 22 26
ENDBRANCH 1 22
TORSDOF 19
ENDMDL
MODEL 96
REMARK VINA RESULT:      -0.4    134.558    142.134
ROOT
ATOM      1  C1  Z9H D   1     131.952  72.505  81.9790  0.00  0.00     0.000 C
ATOM      2  C2  Z9H D   1     132.295  71.397  83.0040  0.00  0.00     0.000 C
ATOM      3  C3  Z9H D   1     131.004  70.538  82.8430  0.00  0.00     0.000 C
ATOM      4  C4  Z9H D   1     129.639  71.338  82.9420  0.00  0.00     0.000 C
ATOM      5  C5  Z9H D   1     129.369  72.686  82.1620  0.00  0.00     0.000 C
ATOM      6  O5  Z9H D   1     130.704  73.245  82.0840  0.00  0.00     0.000 O
ATOM      7   O  Z9H D   1     130.995  69.427  83.7410  0.00  0.00     0.000 O
ATOM      8   C  Z9H D   1     131.412  68.174  83.1750  0.00  0.00     0.000 C
ATOM      9   O  Z9H D   1     128.618  70.413  82.5540  0.00  0.00     0.000 O
ATOM     10   C  Z9H D   1     127.907  69.792  83.6290  0.00  0.00     0.000 C
ENDROOT
BRANCH 2 11
ATOM     11   O  Z9H D   1     133.298  70.680  82.3330  0.00  0.00     0.000 O
ATOM     12   O  Z9H D   1     135.101  70.615  82.8820  0.00  0.00     0.000 OA
ATOM     13   S  Z9H D   1     134.065  71.300  83.5790  0.00  0.00     0.000 S
ATOM     14   O  Z9H D   1     133.620  70.625  84.7640  0.00  0.00     0.000 OA
ATOM     15   O  Z9H D   1     134.229  72.729  83.4470  0.00  0.00     0.000 O
ENDBRANCH 2 11
BRANCH 5 16
ATOM     16   C  Z9H D   1     128.079  73.588  82.7320  0.00  0.00     0.000 C
ATOM     17   S  Z9H D   1     126.536  74.753  82.1830  0.00  0.00     0.000 S
ATOM     18   O  Z9H D   1     127.209  73.388  81.6440  0.00  0.00     0.000 O
ATOM     19   O  Z9H D   1     127.350  75.925  82.0350  0.00  0.00     0.000 O
ATOM     20   O  Z9H D   1     125.751  74.490  83.3380  0.00  0.00     0.000 OA
ATOM     21   O  Z9H D   1     125.712  74.523  81.0320  0.00  0.00     0.000 OA
ENDBRANCH 5 16
BRANCH 1 22
ATOM     22  O4  GU1 D   2     131.877  72.051  80.5790  0.00  0.00     0.000 O
BRANCH 22 26
ATOM     23  C1  GU1 D   2     132.606  73.084  76.6580  0.00  0.00     0.000 C
ATOM     24  C2  GU1 D   2     133.608  73.634  77.6610  0.00  0.00     0.000 C
ATOM     25  C3  GU1 D   2     133.469  72.895  78.9600  0.00  0.00     0.000 C
ATOM     26  C4  GU1 D   2     132.026  72.914  79.4450  0.00  0.00     0.000 C
ATOM     27  C5  GU1 D   2     131.091  72.441  78.3280  0.00  0.00     0.000 C
ATOM     28  O5  GU1 D   2     131.280  73.226  77.1540  0.00  0.00     0.000 O
ATOM     29   O  GU1 D   2     134.949  73.489  77.2090  0.00  0.00     0.000 O
ATOM     30   C  GU1 D   2     135.475  74.653  76.5870  0.00  0.00     0.000 C
ATOM     31   C  GU1 D   2     135.521  72.881  80.2180  0.00  0.00     0.000 C
ATOM     32   O  GU1 D   2     134.289  73.542  79.9390  0.00  0.00     0.000 O
BRANCH 27 33
ATOM     33   C  GU1 D   2     129.643  72.563  78.7390  0.00  0.00     0.000 C
ATOM     34   O  GU1 D   2     129.013  71.546  78.9420  0.00  0.00     0.000 OA
ATOM     35   O  GU1 D   2     129.125  73.661  78.8660  0.00  0.00     0.000 O
ENDBRANCH 27 33
BRANCH 23 36
ATOM     36  O4  GU6 D   3     132.368  73.782  75.4200  0.00  0.00     0.000 O
BRANCH 36 40
ATOM     37  C1  GU6 D   3     130.823  76.178  72.4930  0.00  0.00     0.000 C
ATOM     38  C2  GU6 D   3     131.627  74.996  71.9650  0.00  0.00     0.000 C
ATOM     39  C3  GU6 D   3     131.916  74.038  73.0910  0.00  0.00     0.000 C
ATOM     40  C4  GU6 D   3     131.604  74.477  74.4550  0.00  0.00     0.000 C
ATOM     41  C5  GU6 D   3     131.943  75.997  74.6060  0.00  0.00     0.000 C
ATOM     42  O5  GU6 D   3     131.585  76.830  73.4980  0.00  0.00     0.000 O
BRANCH 38 43
ATOM     43   O  GU6 D   3     130.919  74.333  70.9360  0.00  0.00     0.000 O
ATOM     44   S  GU6 D   3     131.685  74.203  69.6260  0.00  0.00     0.000 S
ATOM     45   O  GU6 D   3     131.561  75.470  68.8840  0.00  0.00     0.000 OA
ATOM     46   O  GU6 D   3     133.105  73.953  69.9340  0.00  0.00     0.000 O
ATOM     47   O  GU6 D   3     131.133  73.086  68.8660  0.00  0.00     0.000 OA
ENDBRANCH 38 43
BRANCH 39 48
ATOM     48   O  GU6 D   3     132.252  72.689  72.8290  0.00  0.00     0.000 O
ATOM     49   S  GU6 D   3     131.375  71.438  72.8470  0.00  0.00     0.000 S
ATOM     50   O  GU6 D   3     130.223  71.615  71.9560  0.00  0.00     0.000 OA
ATOM     51   O  GU6 D   3     132.277  70.392  72.3480  0.00  0.00     0.000 OA
ATOM     52   O  GU6 D   3     130.911  71.198  74.2320  0.00  0.00     0.000 O
ENDBRANCH 39 48
BRANCH 41 53
ATOM     53   C  GU6 D   3     132.583  76.714  75.7640  0.00  0.00     0.000 C
ATOM     54   O  GU6 D   3     131.561  76.507  76.7050  0.00  0.00     0.000 O
ATOM     55   S  GU6 D   3     131.642  77.151  78.0960  0.00  0.00     0.000 S
ATOM     56   O  GU6 D   3     131.544  78.615  77.8950  0.00  0.00     0.000 O
ATOM     57   O  GU6 D   3     130.516  76.661  78.9040  0.00  0.00     0.000 OA
ATOM     58   O  GU6 D   3     132.951  76.779  78.6760  0.00  0.00     0.000 OA
ENDBRANCH 41 53
BRANCH 37 59
ATOM     59  O4  Z9K D   4     129.461  76.109  72.9630  0.00  0.00     0.000 O
BRANCH 59 63
ATOM     60  C1  Z9K D   4     125.540  75.989  72.7220  0.00  0.00     0.000 C
ATOM     61  C2  Z9K D   4     125.918  76.388  71.2690  0.00  0.00     0.000 C
ATOM     62  C3  Z9K D   4     127.502  76.255  71.3230  0.00  0.00     0.000 C
ATOM     63  C4  Z9K D   4     128.282  76.861  72.5520  0.00  0.00     0.000 C
ATOM     64  C5  Z9K D   4     127.491  76.975  73.8630  0.00  0.00     0.000 C
ATOM     65  O5  Z9K D   4     126.586  75.842  73.7930  0.00  0.00     0.000 O
ATOM     66   O  Z9K D   4     128.159  76.799  70.1640  0.00  0.00     0.000 O
ATOM     67   C  Z9K D   4     128.258  75.900  69.0710  0.00  0.00     0.000 C
BRANCH 61 68
ATOM     68   O  Z9K D   4     125.466  75.361  70.4300  0.00  0.00     0.000 O
ATOM     69   O  Z9K D   4     125.315  77.638  69.2710  0.00  0.00     0.000 OA
ATOM     70   S  Z9K D   4     124.567  76.616  69.9390  0.00  0.00     0.000 S
ATOM     71   O  Z9K D   4     123.514  76.832  70.8830  0.00  0.00     0.000 OA
ATOM     72   O  Z9K D   4     124.183  75.587  69.0270  0.00  0.00     0.000 OA
ENDBRANCH 61 68
BRANCH 64 73
ATOM     73   C  Z9K D   4     128.444  77.090  75.0720  0.00  0.00     0.000 C
ATOM     74   O  Z9K D   4     129.107  78.146  75.2850  0.00  0.00     0.000 O
ATOM     75   O  Z9K D   4     128.593  76.148  75.8880  0.00  0.00     0.000 OA
ENDBRANCH 64 73
BRANCH 60 76
ATOM     76  O4  Z9L D   5     124.570  76.598  73.5930  0.00  0.00     0.000 O
BRANCH 76 80
ATOM     77  C1  Z9L D   5     121.748  75.865  76.3260  0.00  0.00     0.000 C
ATOM     78  C2  Z9L D   5     122.919  76.675  77.0650  0.00  0.00     0.000 C
ATOM     79  C3  Z9L D   5     123.867  77.374  75.8510  0.00  0.00     0.000 C
ATOM     80  C4  Z9L D   5     123.960  76.135  74.7700  0.00  0.00     0.000 C
ATOM     81  C5  Z9L D   5     122.818  75.155  74.1880  0.00  0.00     0.000 C
ATOM     82  O5  Z9L D   5     121.972  74.817  75.2970  0.00  0.00     0.000 O
ATOM     83   C  Z9L D   5     119.662  76.232  75.1400  0.00  0.00     0.000 C
ATOM     84   C  Z9L D   5     119.662  76.232  75.1400  0.00  0.00     0.000 C
BRANCH 78 85
ATOM     85   O  Z9L D   5     122.333  77.683  77.8240  0.00  0.00     0.000 O
ATOM     86   O  Z9L D   5     122.289  77.736  79.7490  0.00  0.00     0.000 OA
ATOM     87   S  Z9L D   5     122.997  76.769  78.9670  0.00  0.00     0.000 S
ATOM     88   O  Z9L D   5     124.392  77.049  79.1980  0.00  0.00     0.000 OA
ATOM     89   O  Z9L D   5     122.356  75.527  79.2360  0.00  0.00     0.000 OA
ENDBRANCH 78 85
BRANCH 79 90
ATOM     90   O  Z9L D   5     125.189  77.518  76.2610  0.00  0.00     0.000 O
ATOM     91   S  Z9L D   5     124.848  79.036  75.9220  0.00  0.00     0.000 S
ATOM     92   O  Z9L D   5     123.744  79.732  76.5290  0.00  0.00     0.000 OA
ATOM     93   O  Z9L D   5     125.253  79.326  74.5690  0.00  0.00     0.000 O
ATOM     94   O  Z9L D   5     125.987  79.242  76.7560  0.00  0.00     0.000 OA
ENDBRANCH 79 90
BRANCH 81 95
ATOM     95   C  Z9L D   5     123.310  73.929  73.1550  0.00  0.00     0.000 C
ATOM     96   S  Z9L D   5     123.823  72.008  73.0400  0.00  0.00     0.000 S
ATOM     97   O  Z9L D   5     124.029  73.166  74.0870  0.00  0.00     0.000 O
ATOM     98   O  Z9L D   5     124.688  72.298  71.9250  0.00  0.00     0.000 OA
ATOM     99   O  Z9L D   5     122.479  71.582  72.8440  0.00  0.00     0.000 OA
ATOM    100   O  Z9L D   5     124.582  71.278  74.0270  0.00  0.00     0.000 O
ENDBRANCH 81 95
ENDBRANCH 76 80
ENDBRANCH 60 76
ENDBRANCH 59 63
ENDBRANCH 37 59
ENDBRANCH 36 40
ENDBRANCH 23 36
ENDBRANCH 22 26
ENDBRANCH 1 22
TORSDOF 19
ENDMDL
MODEL 97
REMARK VINA RESULT:      -0.4    130.028    134.678
ROOT
ATOM      1  C1  Z9H D   1       7.998 104.429 114.1780  0.00  0.00     0.000 C
ATOM      2  C2  Z9H D   1       6.639 104.543 113.4470  0.00  0.00     0.000 C
ATOM      3  C3  Z9H D   1       6.258 103.031 113.4520  0.00  0.00     0.000 C
ATOM      4  C4  Z9H D   1       7.381 102.045 112.9240  0.00  0.00     0.000 C
ATOM      5  C5  Z9H D   1       8.887 102.119 113.3960  0.00  0.00     0.000 C
ATOM      6  O5  Z9H D   1       9.030 103.534 113.6800  0.00  0.00     0.000 O
ATOM      7   O  Z9H D   1       5.027 102.796 112.7650  0.00  0.00     0.000 O
ATOM      8   C  Z9H D   1       3.866 102.675 113.6040  0.00  0.00     0.000 C
ATOM      9   O  Z9H D   1       6.910 100.726 113.2180  0.00  0.00     0.000 O
ATOM     10   C  Z9H D   1       6.302 100.030 112.1250  0.00  0.00     0.000 C
ENDROOT
BRANCH 2 11
ATOM     11   O  Z9H D   1       5.826 105.128 114.4310  0.00  0.00     0.000 O
ATOM     12   O  Z9H D   1       5.115 106.871 114.3180  0.00  0.00     0.000 OA
ATOM     13   S  Z9H D   1       5.901 106.248 113.3070  0.00  0.00     0.000 S
ATOM     14   O  Z9H D   1       5.141 105.802 112.1740  0.00  0.00     0.000 OA
ATOM     15   O  Z9H D   1       7.211 106.853 113.2430  0.00  0.00     0.000 O
ENDBRANCH 2 11
BRANCH 5 16
ATOM     16   C  Z9H D   1       9.978 101.313 112.4160  0.00  0.00     0.000 C
ATOM     17   S  Z9H D   1      11.634 100.175 112.4130  0.00  0.00     0.000 S
ATOM     18   O  Z9H D   1      10.287 100.260 113.2970  0.00  0.00     0.000 O
ATOM     19   O  Z9H D   1      12.520 101.295 112.5540  0.00  0.00     0.000 O
ATOM     20   O  Z9H D   1      11.364  99.547 111.1660  0.00  0.00     0.000 OA
ATOM     21   O  Z9H D   1      11.916  99.145 113.3690  0.00  0.00     0.000 OA
ENDBRANCH 5 16
BRANCH 1 22
ATOM     22  O4  GU1 D   2       7.912 103.985 115.5800  0.00  0.00     0.000 O
BRANCH 22 26
ATOM     23  C1  GU1 D   2       9.536 104.376 119.3460  0.00  0.00     0.000 C
ATOM     24  C2  GU1 D   2       9.528 105.651 118.5170  0.00  0.00     0.000 C
ATOM     25  C3  GU1 D   2       8.591 105.485 117.3560  0.00  0.00     0.000 C
ATOM     26  C4  GU1 D   2       8.924 104.228 116.5650  0.00  0.00     0.000 C
ATOM     27  C5  GU1 D   2       9.009 103.023 117.5060  0.00  0.00     0.000 C
ATOM     28  O5  GU1 D   2       9.947 103.271 118.5500  0.00  0.00     0.000 O
ATOM     29   O  GU1 D   2       9.101 106.777 119.2750  0.00  0.00     0.000 O
ATOM     30   C  GU1 D   2      10.167 107.553 119.8030  0.00  0.00     0.000 C
ATOM     31   C  GU1 D   2       7.694 107.589 116.6080  0.00  0.00     0.000 C
ATOM     32   O  GU1 D   2       8.732 106.619 116.4950  0.00  0.00     0.000 O
BRANCH 27 33
ATOM     33   C  GU1 D   2       9.456 101.784 116.7670  0.00  0.00     0.000 C
ATOM     34   O  GU1 D   2       8.650 100.893 116.5930  0.00  0.00     0.000 OA
ATOM     35   O  GU1 D   2      10.601 101.686 116.3530  0.00  0.00     0.000 O
ENDBRANCH 27 33
BRANCH 23 36
ATOM     36  O4  GU6 D   3      10.532 104.188 120.3710  0.00  0.00     0.000 O
BRANCH 36 40
ATOM     37  C1  GU6 D   3      13.869 103.082 122.4520  0.00  0.00     0.000 C
ATOM     38  C2  GU6 D   3      12.653 103.349 123.3300  0.00  0.00     0.000 C
ATOM     39  C3  GU6 D   3      11.426 103.479 122.4660  0.00  0.00     0.000 C
ATOM     40  C4  GU6 D   3      11.619 103.555 121.0140  0.00  0.00     0.000 C
ATOM     41  C5  GU6 D   3      12.897 104.402 120.7010  0.00  0.00     0.000 C
ATOM     42  O5  GU6 D   3      14.025 104.168 121.5530  0.00  0.00     0.000 O
BRANCH 38 43
ATOM     43   O  GU6 D   3      12.476 102.303 124.2670  0.00  0.00     0.000 O
ATOM     44   S  GU6 D   3      12.421 102.761 125.7180  0.00  0.00     0.000 S
ATOM     45   O  GU6 D   3      13.799 102.952 126.2020  0.00  0.00     0.000 OA
ATOM     46   O  GU6 D   3      11.699 104.045 125.7800  0.00  0.00     0.000 O
ATOM     47   O  GU6 D   3      11.716 101.753 126.5030  0.00  0.00     0.000 OA
ENDBRANCH 38 43
BRANCH 39 48
ATOM     48   O  GU6 D   3      10.132 103.299 123.0110  0.00  0.00     0.000 O
ATOM     49   S  GU6 D   3       9.225 102.069 122.9970  0.00  0.00     0.000 S
ATOM     50   O  GU6 D   3       9.929 100.915 123.5670  0.00  0.00     0.000 OA
ATOM     51   O  GU6 D   3       8.098 102.477 123.8470  0.00  0.00     0.000 OA
ATOM     52   O  GU6 D   3       8.828 101.782 121.6000  0.00  0.00     0.000 O
ENDBRANCH 39 48
BRANCH 41 53
ATOM     53   C  GU6 D   3      13.115 105.422 119.6170  0.00  0.00     0.000 C
ATOM     54   O  GU6 D   3      13.013 104.556 118.5160  0.00  0.00     0.000 O
ATOM     55   S  GU6 D   3      13.275 105.070 117.0940  0.00  0.00     0.000 S
ATOM     56   O  GU6 D   3      14.709 105.435 117.0300  0.00  0.00     0.000 O
ATOM     57   O  GU6 D   3      12.970 103.991 116.1430  0.00  0.00     0.000 OA
ATOM     58   O  GU6 D   3      12.414 106.256 116.8900  0.00  0.00     0.000 OA
ENDBRANCH 41 53
BRANCH 37 59
ATOM     59  O4  Z9K D   4      14.102 101.869 121.7050  0.00  0.00     0.000 O
BRANCH 59 63
ATOM     60  C1  Z9K D   4      15.208  98.147 121.0980  0.00  0.00     0.000 C
ATOM     61  C2  Z9K D   4      15.812  98.415 122.5050  0.00  0.00     0.000 C
ATOM     62  C3  Z9K D   4      15.208  99.851 122.8240  0.00  0.00     0.000 C
ATOM     63  C4  Z9K D   4      15.244 100.964 121.7080  0.00  0.00     0.000 C
ATOM     64  C5  Z9K D   4      15.271 100.464 120.2560  0.00  0.00     0.000 C
ATOM     65  O5  Z9K D   4      14.507  99.231 120.3260  0.00  0.00     0.000 O
ATOM     66   O  Z9K D   4      15.794 100.470 123.9830  0.00  0.00     0.000 O
ATOM     67   C  Z9K D   4      15.194 100.097 125.2130  0.00  0.00     0.000 C
BRANCH 61 68
ATOM     68   O  Z9K D   4      15.197  97.523 123.3930  0.00  0.00     0.000 O
ATOM     69   O  Z9K D   4      17.625  97.971 124.0650  0.00  0.00     0.000 OA
ATOM     70   S  Z9K D   4      16.740  97.033 123.4420  0.00  0.00     0.000 S
ATOM     71   O  Z9K D   4      17.024  96.269 122.2660  0.00  0.00     0.000 OA
ATOM     72   O  Z9K D   4      16.120  96.194 124.4160  0.00  0.00     0.000 OA
ENDBRANCH 61 68
BRANCH 64 73
ATOM     73   C  Z9K D   4      14.806 101.570 119.2850  0.00  0.00     0.000 C
ATOM     74   O  Z9K D   4      15.538 102.571 119.0330  0.00  0.00     0.000 O
ATOM     75   O  Z9K D   4      13.693 101.517 118.7060  0.00  0.00     0.000 OA
ENDBRANCH 64 73
BRANCH 60 76
ATOM     76  O4  Z9L D   5      15.850  97.581 119.9430  0.00  0.00     0.000 O
BRANCH 76 80
ATOM     77  C1  Z9L D   5      15.339  95.152 116.8110  0.00  0.00     0.000 C
ATOM     78  C2  Z9L D   5      15.593  96.624 116.2270  0.00  0.00     0.000 C
ATOM     79  C3  Z9L D   5      16.255  97.538 117.4870  0.00  0.00     0.000 C
ATOM     80  C4  Z9L D   5      15.322  97.051 118.7540  0.00  0.00     0.000 C
ATOM     81  C5  Z9L D   5      14.865  95.577 119.2220  0.00  0.00     0.000 C
ATOM     82  O5  Z9L D   5      14.536  94.857 118.0250  0.00  0.00     0.000 O
ATOM     83   C  Z9L D   5      16.542  93.133 117.4200  0.00  0.00     0.000 C
ATOM     84   C  Z9L D   5      16.542  93.133 117.4200  0.00  0.00     0.000 C
BRANCH 78 85
ATOM     85   O  Z9L D   5      16.525  96.525 115.1970  0.00  0.00     0.000 O
ATOM     86   O  Z9L D   5      16.145  96.810 113.3310  0.00  0.00     0.000 OA
ATOM     87   S  Z9L D   5      15.223  97.033 114.4030  0.00  0.00     0.000 S
ATOM     88   O  Z9L D   5      15.037  98.462 114.4460  0.00  0.00     0.000 OA
ATOM     89   O  Z9L D   5      14.187  96.078 114.2100  0.00  0.00     0.000 OA
ENDBRANCH 78 85
BRANCH 79 90
ATOM     90   O  Z9L D   5      15.921  98.884 117.3660  0.00  0.00     0.000 O
ATOM     91   S  Z9L D   5      17.509  99.002 117.3650  0.00  0.00     0.000 S
ATOM     92   O  Z9L D   5      18.334  98.295 116.4210  0.00  0.00     0.000 OA
ATOM     93   O  Z9L D   5      17.969  99.255 118.7080  0.00  0.00     0.000 O
ATOM     94   O  Z9L D   5      17.189 100.266 116.7850  0.00  0.00     0.000 OA
ENDBRANCH 79 90
BRANCH 81 95
ATOM     95   C  Z9L D   5      13.820  95.474 120.5300  0.00  0.00     0.000 C
ATOM     96   S  Z9L D   5      11.911  95.325 121.0780  0.00  0.00     0.000 S
ATOM     97   O  Z9L D   5      12.697  96.060 119.9280  0.00  0.00     0.000 O
ATOM     98   O  Z9L D   5      12.198  96.036 122.2970  0.00  0.00     0.000 OA
ATOM     99   O  Z9L D   5      11.930  93.902 121.0290  0.00  0.00     0.000 OA
ATOM    100   O  Z9L D   5      10.796  95.967 120.4270  0.00  0.00     0.000 O
ENDBRANCH 81 95
ENDBRANCH 76 80
ENDBRANCH 60 76
ENDBRANCH 59 63
ENDBRANCH 37 59
ENDBRANCH 36 40
ENDBRANCH 23 36
ENDBRANCH 22 26
ENDBRANCH 1 22
TORSDOF 19
ENDMDL
MODEL 98
REMARK VINA RESULT:      -0.4     81.637     87.896
ROOT
ATOM      1  C1  Z9H D   1      84.398  69.581   9.4650  0.00  0.00     0.000 C
ATOM      2  C2  Z9H D   1      84.670  68.522   8.3700  0.00  0.00     0.000 C
ATOM      3  C3  Z9H D   1      85.393  69.445   7.3420  0.00  0.00     0.000 C
ATOM      4  C4  Z9H D   1      84.639  70.794   6.9930  0.00  0.00     0.000 C
ATOM      5  C5  Z9H D   1      84.031  71.754   8.0920  0.00  0.00     0.000 C
ATOM      6  O5  Z9H D   1      83.693  70.811   9.1410  0.00  0.00     0.000 O
ATOM      7   O  Z9H D   1      85.728  68.739   6.1460  0.00  0.00     0.000 O
ATOM      8   C  Z9H D   1      87.085  68.271   6.0670  0.00  0.00     0.000 C
ATOM      9   O  Z9H D   1      85.564  71.568   6.2220  0.00  0.00     0.000 O
ATOM     10   C  Z9H D   1      85.373  71.525   4.8040  0.00  0.00     0.000 C
ENDROOT
BRANCH 2 11
ATOM     11   O  Z9H D   1      85.690  67.754   8.9530  0.00  0.00     0.000 O
ATOM     12   O  Z9H D   1      85.486  65.960   9.5000  0.00  0.00     0.000 OA
ATOM     13   S  Z9H D   1      84.474  66.735   8.8640  0.00  0.00     0.000 S
ATOM     14   O  Z9H D   1      84.267  66.400   7.4840  0.00  0.00     0.000 OA
ATOM     15   O  Z9H D   1      83.429  67.068   9.8040  0.00  0.00     0.000 O
ENDBRANCH 2 11
BRANCH 5 16
ATOM     16   C  Z9H D   1      82.913  72.862   7.5250  0.00  0.00     0.000 C
ATOM     17   S  Z9H D   1      82.254  74.753   7.7090  0.00  0.00     0.000 S
ATOM     18   O  Z9H D   1      83.694  74.022   7.6860  0.00  0.00     0.000 O
ATOM     19   O  Z9H D   1      81.449  74.461   8.8600  0.00  0.00     0.000 O
ATOM     20   O  Z9H D   1      81.728  74.841   6.3920  0.00  0.00     0.000 OA
ATOM     21   O  Z9H D   1      83.099  75.892   7.9200  0.00  0.00     0.000 OA
ENDBRANCH 5 16
BRANCH 1 22
ATOM     22  O4  GU1 D   2      85.605  70.127  10.1110  0.00  0.00     0.000 O
BRANCH 22 26
ATOM     23  C1  GU1 D   2      87.197  71.521  13.6460  0.00  0.00     0.000 C
ATOM     24  C2  GU1 D   2      86.194  70.388  13.7990  0.00  0.00     0.000 C
ATOM     25  C3  GU1 D   2      85.986  69.724  12.4690  0.00  0.00     0.000 C
ATOM     26  C4  GU1 D   2      85.615  70.745  11.4030  0.00  0.00     0.000 C
ATOM     27  C5  GU1 D   2      86.628  71.894  11.4020  0.00  0.00     0.000 C
ATOM     28  O5  GU1 D   2      86.726  72.474  12.7000  0.00  0.00     0.000 O
ATOM     29   O  GU1 D   2      86.641  69.403  14.7230  0.00  0.00     0.000 O
ATOM     30   C  GU1 D   2      86.117  69.564  16.0330  0.00  0.00     0.000 C
ATOM     31   C  GU1 D   2      85.321  67.423  12.7000  0.00  0.00     0.000 C
ATOM     32   O  GU1 D   2      84.914  68.785  12.5950  0.00  0.00     0.000 O
BRANCH 27 33
ATOM     33   C  GU1 D   2      86.220  72.982  10.4380  0.00  0.00     0.000 C
ATOM     34   O  GU1 D   2      85.253  73.663  10.7110  0.00  0.00     0.000 OA
ATOM     35   O  GU1 D   2      86.853  73.171   9.4110  0.00  0.00     0.000 O
ENDBRANCH 27 33
BRANCH 23 36
ATOM     36  O4  GU6 D   3      87.384  72.468  14.7160  0.00  0.00     0.000 O
BRANCH 36 40
ATOM     37  C1  GU6 D   3      87.174  75.751  17.1390  0.00  0.00     0.000 C
ATOM     38  C2  GU6 D   3      88.472  74.964  17.2750  0.00  0.00     0.000 C
ATOM     39  C3  GU6 D   3      88.567  73.951  16.1640  0.00  0.00     0.000 C
ATOM     40  C4  GU6 D   3      87.377  73.741  15.3310  0.00  0.00     0.000 C
ATOM     41  C5  GU6 D   3      86.094  73.816  16.2230  0.00  0.00     0.000 C
ATOM     42  O5  GU6 D   3      86.085  74.845  17.2180  0.00  0.00     0.000 O
BRANCH 38 43
ATOM     43   O  GU6 D   3      89.588  75.833  17.2330  0.00  0.00     0.000 O
ATOM     44   S  GU6 D   3      90.521  75.717  18.4300  0.00  0.00     0.000 S
ATOM     45   O  GU6 D   3      89.959  76.505  19.5410  0.00  0.00     0.000 OA
ATOM     46   O  GU6 D   3      90.603  74.299  18.8280  0.00  0.00     0.000 O
ATOM     47   O  GU6 D   3      91.842  76.206  18.0460  0.00  0.00     0.000 OA
ENDBRANCH 38 43
BRANCH 39 48
ATOM     48   O  GU6 D   3      89.814  73.397  15.7900  0.00  0.00     0.000 O
ATOM     49   S  GU6 D   3      90.754  73.781  14.6480  0.00  0.00     0.000 S
ATOM     50   O  GU6 D   3      91.097  75.206  14.7320  0.00  0.00     0.000 OA
ATOM     51   O  GU6 D   3      91.932  72.937  14.8890  0.00  0.00     0.000 OA
ATOM     52   O  GU6 D   3      90.085  73.496  13.3590  0.00  0.00     0.000 O
ENDBRANCH 39 48
BRANCH 41 53
ATOM     53   C  GU6 D   3      84.855  72.964  16.1720  0.00  0.00     0.000 C
ATOM     54   O  GU6 D   3      84.394  73.373  14.9110  0.00  0.00     0.000 O
ATOM     55   S  GU6 D   3      83.042  72.879  14.3780  0.00  0.00     0.000 S
ATOM     56   O  GU6 D   3      81.999  73.457  15.2580  0.00  0.00     0.000 O
ATOM     57   O  GU6 D   3      82.880  73.355  12.9970  0.00  0.00     0.000 OA
ATOM     58   O  GU6 D   3      83.050  71.401  14.4630  0.00  0.00     0.000 OA
ENDBRANCH 41 53
BRANCH 37 59
ATOM     59  O4  Z9K D   4      86.879  76.686  16.0800  0.00  0.00     0.000 O
BRANCH 59 63
ATOM     60  C1  Z9K D   4      86.947  80.097  14.1280  0.00  0.00     0.000 C
ATOM     61  C2  Z9K D   4      87.533  80.525  15.5030  0.00  0.00     0.000 C
ATOM     62  C3  Z9K D   4      87.675  79.113  16.2220  0.00  0.00     0.000 C
ATOM     63  C4  Z9K D   4      86.482  78.087  16.1410  0.00  0.00     0.000 C
ATOM     64  C5  Z9K D   4      85.558  78.220  14.9210  0.00  0.00     0.000 C
ATOM     65  O5  Z9K D   4      86.459  78.695  13.8860  0.00  0.00     0.000 O
ATOM     66   O  Z9K D   4      87.978  79.218  17.6250  0.00  0.00     0.000 O
ATOM     67   C  Z9K D   4      89.359  79.352  17.9170  0.00  0.00     0.000 C
BRANCH 61 68
ATOM     68   O  Z9K D   4      88.837  80.981  15.2700  0.00  0.00     0.000 O
ATOM     69   O  Z9K D   4      87.730  82.275  17.1800  0.00  0.00     0.000 OA
ATOM     70   S  Z9K D   4      88.101  82.324  15.7980  0.00  0.00     0.000 S
ATOM     71   O  Z9K D   4      87.309  82.869  14.7380  0.00  0.00     0.000 OA
ATOM     72   O  Z9K D   4      89.454  82.753  15.6490  0.00  0.00     0.000 OA
ENDBRANCH 61 68
BRANCH 64 73
ATOM     73   C  Z9K D   4      84.774  76.913  14.6800  0.00  0.00     0.000 C
ATOM     74   O  Z9K D   4      83.841  76.556  15.4550  0.00  0.00     0.000 O
ATOM     75   O  Z9K D   4      85.027  76.160  13.7070  0.00  0.00     0.000 OA
ENDBRANCH 64 73
BRANCH 60 76
ATOM     76  O4  Z9L D   5      85.893  80.717  13.3730  0.00  0.00     0.000 O
BRANCH 76 80
ATOM     77  C1  Z9L D   5      84.697  81.743   9.7000  0.00  0.00     0.000 C
ATOM     78  C2  Z9L D   5      83.665  80.640  10.2390  0.00  0.00     0.000 C
ATOM     79  C3  Z9L D   5      83.883  80.549  11.9140  0.00  0.00     0.000 C
ATOM     80  C4  Z9L D   5      85.526  80.601  12.0230  0.00  0.00     0.000 C
ATOM     81  C5  Z9L D   5      86.600  81.564  11.3020  0.00  0.00     0.000 C
ATOM     82  O5  Z9L D   5      86.162  81.712   9.9430  0.00  0.00     0.000 O
ATOM     83   C  Z9L D   5      85.012  84.149   9.6220  0.00  0.00     0.000 C
ATOM     84   C  Z9L D   5      85.012  84.149   9.6220  0.00  0.00     0.000 C
BRANCH 78 85
ATOM     85   O  Z9L D   5      82.375  81.087   9.9710  0.00  0.00     0.000 O
ATOM     86   O  Z9L D   5      81.173  80.295   8.6910  0.00  0.00     0.000 OA
ATOM     87   S  Z9L D   5      82.450  79.765   9.0600  0.00  0.00     0.000 S
ATOM     88   O  Z9L D   5      82.157  78.549   9.7770  0.00  0.00     0.000 OA
ATOM     89   O  Z9L D   5      83.245  79.850   7.8840  0.00  0.00     0.000 OA
ENDBRANCH 78 85
BRANCH 79 90
ATOM     90   O  Z9L D   5      83.588  79.276  12.3950  0.00  0.00     0.000 O
ATOM     91   S  Z9L D   5      82.555  80.132  13.2540  0.00  0.00     0.000 S
ATOM     92   O  Z9L D   5      81.582  81.001  12.6460  0.00  0.00     0.000 OA
ATOM     93   O  Z9L D   5      83.147  80.457  14.5270  0.00  0.00     0.000 O
ATOM     94   O  Z9L D   5      81.949  78.846  13.3870  0.00  0.00     0.000 OA
ENDBRANCH 79 90
BRANCH 81 95
ATOM     95   C  Z9L D   5      88.224  81.256  11.5890  0.00  0.00     0.000 C
ATOM     96   S  Z9L D   5      89.851  80.337  10.9010  0.00  0.00     0.000 S
ATOM     97   O  Z9L D   5      88.308  80.022  10.9270  0.00  0.00     0.000 O
ATOM     98   O  Z9L D   5      90.332  80.164  12.2470  0.00  0.00     0.000 OA
ATOM     99   O  Z9L D   5      90.241  81.456  10.1120  0.00  0.00     0.000 OA
ATOM    100   O  Z9L D   5      89.878  79.055  10.2400  0.00  0.00     0.000 O
ENDBRANCH 81 95
ENDBRANCH 76 80
ENDBRANCH 60 76
ENDBRANCH 59 63
ENDBRANCH 37 59
ENDBRANCH 36 40
ENDBRANCH 23 36
ENDBRANCH 22 26
ENDBRANCH 1 22
TORSDOF 19
ENDMDL
MODEL 99
REMARK VINA RESULT:      -0.4    133.694    137.916
ROOT
ATOM      1  C1  Z9H D   1       5.295 103.559 122.1360  0.00  0.00     0.000 C
ATOM      2  C2  Z9H D   1       4.337 104.698 122.5580  0.00  0.00     0.000 C
ATOM      3  C3  Z9H D   1       3.903 104.122 123.9410  0.00  0.00     0.000 C
ATOM      4  C4  Z9H D   1       3.412 102.615 123.9250  0.00  0.00     0.000 C
ATOM      5  C5  Z9H D   1       4.202 101.457 123.1960  0.00  0.00     0.000 C
ATOM      6  O5  Z9H D   1       4.834 102.180 122.1100  0.00  0.00     0.000 O
ATOM      7   O  Z9H D   1       2.931 104.955 124.5770  0.00  0.00     0.000 O
ATOM      8   C  Z9H D   1       3.448 105.856 125.5700  0.00  0.00     0.000 C
ATOM      9   O  Z9H D   1       3.278 102.236 125.2990  0.00  0.00     0.000 O
ATOM     10   C  Z9H D   1       1.948 102.279 125.8250  0.00  0.00     0.000 C
ENDROOT
BRANCH 2 11
ATOM     11   O  Z9H D   1       5.232 105.737 122.8590  0.00  0.00     0.000 O
ATOM     12   O  Z9H D   1       5.382 107.329 121.8600  0.00  0.00     0.000 OA
ATOM     13   S  Z9H D   1       4.446 106.289 121.5940  0.00  0.00     0.000 S
ATOM     14   O  Z9H D   1       3.104 106.600 121.9970  0.00  0.00     0.000 OA
ATOM     15   O  Z9H D   1       4.809 105.580 120.3890  0.00  0.00     0.000 O
ENDBRANCH 2 11
BRANCH 5 16
ATOM     16   C  Z9H D   1       3.318 100.064 122.9150  0.00  0.00     0.000 C
ATOM     17   S  Z9H D   1       3.414  98.057 122.8540  0.00  0.00     0.000 S
ATOM     18   O  Z9H D   1       4.003  99.219 123.8080  0.00  0.00     0.000 O
ATOM     19   O  Z9H D   1       3.964  98.029 121.5290  0.00  0.00     0.000 O
ATOM     20   O  Z9H D   1       2.036  97.847 123.1300  0.00  0.00     0.000 OA
ATOM     21   O  Z9H D   1       4.170  97.250 123.7660  0.00  0.00     0.000 OA
ENDBRANCH 5 16
BRANCH 1 22
ATOM     22  O4  GU1 D   2       6.501 103.423 122.9720  0.00  0.00     0.000 O
BRANCH 22 26
ATOM     23  C1  GU1 D   2      10.510 102.474 122.9740  0.00  0.00     0.000 C
ATOM     24  C2  GU1 D   2      10.022 103.187 121.7220  0.00  0.00     0.000 C
ATOM     25  C3  GU1 D   2       8.682 103.808 121.9930  0.00  0.00     0.000 C
ATOM     26  C4  GU1 D   2       7.707 102.779 122.5450  0.00  0.00     0.000 C
ATOM     27  C5  GU1 D   2       8.334 102.047 123.7360  0.00  0.00     0.000 C
ATOM     28  O5  GU1 D   2       9.582 101.469 123.3640  0.00  0.00     0.000 O
ATOM     29   O  GU1 D   2      10.914 104.216 121.3130  0.00  0.00     0.000 O
ATOM     30   C  GU1 D   2      11.824 103.818 120.2970  0.00  0.00     0.000 C
ATOM     31   C  GU1 D   2       8.277 105.728 120.6000  0.00  0.00     0.000 C
ATOM     32   O  GU1 D   2       8.162 104.317 120.7610  0.00  0.00     0.000 O
BRANCH 27 33
ATOM     33   C  GU1 D   2       7.437 100.937 124.2290  0.00  0.00     0.000 C
ATOM     34   O  GU1 D   2       7.298  99.954 123.5310  0.00  0.00     0.000 OA
ATOM     35   O  GU1 D   2       6.871 101.029 125.3080  0.00  0.00     0.000 O
ENDBRANCH 27 33
BRANCH 23 36
ATOM     36  O4  GU6 D   3      11.649 101.594 122.9050  0.00  0.00     0.000 O
BRANCH 36 40
ATOM     37  C1  GU6 D   3      14.079  98.320 122.6350  0.00  0.00     0.000 C
ATOM     38  C2  GU6 D   3      14.709  99.500 123.3640  0.00  0.00     0.000 C
ATOM     39  C3  GU6 D   3      13.657 100.540 123.6470  0.00  0.00     0.000 C
ATOM     40  C4  GU6 D   3      12.343 100.368 123.0180  0.00  0.00     0.000 C
ATOM     41  C5  GU6 D   3      12.526  99.807 121.5690  0.00  0.00     0.000 C
ATOM     42  O5  GU6 D   3      13.521  98.787 121.4160  0.00  0.00     0.000 O
BRANCH 38 43
ATOM     43   O  GU6 D   3      15.307  99.076 124.5740  0.00  0.00     0.000 O
ATOM     44   S  GU6 D   3      16.779  99.444 124.7110  0.00  0.00     0.000 S
ATOM     45   O  GU6 D   3      17.581  98.451 123.9750  0.00  0.00     0.000 OA
ATOM     46   O  GU6 D   3      16.988 100.778 124.1200  0.00  0.00     0.000 O
ATOM     47   O  GU6 D   3      17.128  99.464 126.1280  0.00  0.00     0.000 OA
ENDBRANCH 38 43
BRANCH 39 48
ATOM     48   O  GU6 D   3      13.848 101.510 124.6590  0.00  0.00     0.000 O
ATOM     49   S  GU6 D   3      13.345 101.535 126.1020  0.00  0.00     0.000 S
ATOM     50   O  GU6 D   3      13.763 100.315 126.8040  0.00  0.00     0.000 OA
ATOM     51   O  GU6 D   3      14.002 102.722 126.6630  0.00  0.00     0.000 OA
ATOM     52   O  GU6 D   3      11.868 101.633 126.0940  0.00  0.00     0.000 O
ENDBRANCH 39 48
BRANCH 41 53
ATOM     53   C  GU6 D   3      11.791 100.177 120.3090  0.00  0.00     0.000 C
ATOM     54   O  GU6 D   3      10.521  99.714 120.6870  0.00  0.00     0.000 O
ATOM     55   S  GU6 D   3       9.354  99.742 119.6900  0.00  0.00     0.000 S
ATOM     56   O  GU6 D   3       9.692  98.784 118.6120  0.00  0.00     0.000 O
ATOM     57   O  GU6 D   3       8.130  99.327 120.3900  0.00  0.00     0.000 OA
ATOM     58   O  GU6 D   3       9.258 101.122 119.1650  0.00  0.00     0.000 OA
ENDBRANCH 41 53
BRANCH 37 59
ATOM     59  O4  Z9K D   4      13.132  97.398 123.2150  0.00  0.00     0.000 O
BRANCH 59 63
ATOM     60  C1  Z9K D   4      11.897  94.319 125.3220  0.00  0.00     0.000 C
ATOM     61  C2  Z9K D   4      13.424  94.043 125.2530  0.00  0.00     0.000 C
ATOM     62  C3  Z9K D   4      13.941  95.379 124.5620  0.00  0.00     0.000 C
ATOM     63  C4  Z9K D   4      13.169  95.944 123.3100  0.00  0.00     0.000 C
ATOM     64  C5  Z9K D   4      11.682  95.570 123.2080  0.00  0.00     0.000 C
ATOM     65  O5  Z9K D   4      11.276  95.483 124.5990  0.00  0.00     0.000 O
ATOM     66   O  Z9K D   4      15.317  95.310 124.1480  0.00  0.00     0.000 O
ATOM     67   C  Z9K D   4      16.252  95.636 125.1640  0.00  0.00     0.000 C
BRANCH 61 68
ATOM     68   O  Z9K D   4      13.906  94.068 126.5680  0.00  0.00     0.000 O
ATOM     69   O  Z9K D   4      15.192  92.375 125.1420  0.00  0.00     0.000 OA
ATOM     70   S  Z9K D   4      14.177  92.529 126.1410  0.00  0.00     0.000 S
ATOM     71   O  Z9K D   4      12.944  91.806 126.1980  0.00  0.00     0.000 OA
ATOM     72   O  Z9K D   4      14.752  92.591 127.4460  0.00  0.00     0.000 OA
ENDBRANCH 61 68
BRANCH 64 73
ATOM     73   C  Z9K D   4      10.933  96.546 122.2760  0.00  0.00     0.000 C
ATOM     74   O  Z9K D   4      10.125  97.403 122.7370  0.00  0.00     0.000 O
ATOM     75   O  Z9K D   4      11.101  96.533 121.0320  0.00  0.00     0.000 OA
ENDBRANCH 64 73
BRANCH 60 76
ATOM     76  O4  Z9L D   5      10.811  93.419 125.0400  0.00  0.00     0.000 O
BRANCH 76 80
ATOM     77  C1  Z9L D   5       7.118  92.341 126.1210  0.00  0.00     0.000 C
ATOM     78  C2  Z9L D   5       7.018  92.936 124.6350  0.00  0.00     0.000 C
ATOM     79  C3  Z9L D   5       8.591  92.958 124.0140  0.00  0.00     0.000 C
ATOM     80  C4  Z9L D   5       9.437  93.507 125.3160  0.00  0.00     0.000 C
ATOM     81  C5  Z9L D   5       9.382  93.072 126.8680  0.00  0.00     0.000 C
ATOM     82  O5  Z9L D   5       7.995  92.889 127.1880  0.00  0.00     0.000 O
ATOM     83   C  Z9L D   5       7.431  90.237 127.2910  0.00  0.00     0.000 C
ATOM     84   C  Z9L D   5       7.431  90.237 127.2910  0.00  0.00     0.000 C
BRANCH 78 85
ATOM     85   O  Z9L D   5       6.239  92.069 123.8750  0.00  0.00     0.000 O
ATOM     86   O  Z9L D   5       4.478  92.465 123.2010  0.00  0.00     0.000 OA
ATOM     87   S  Z9L D   5       5.332  93.395 123.8750  0.00  0.00     0.000 S
ATOM     88   O  Z9L D   5       5.707  94.356 122.8670  0.00  0.00     0.000 OA
ATOM     89   O  Z9L D   5       4.662  93.705 125.0910  0.00  0.00     0.000 OA
ENDBRANCH 78 85
BRANCH 79 90
ATOM     90   O  Z9L D   5       8.756  93.987 123.0900  0.00  0.00     0.000 O
ATOM     91   S  Z9L D   5       9.154  92.743 122.1790  0.00  0.00     0.000 S
ATOM     92   O  Z9L D   5       8.273  91.623 121.9770  0.00  0.00     0.000 OA
ATOM     93   O  Z9L D   5      10.584  92.565 122.2120  0.00  0.00     0.000 O
ATOM     94   O  Z9L D   5       8.871  93.694 121.1530  0.00  0.00     0.000 OA
ENDBRANCH 79 90
BRANCH 81 95
ATOM     95   C  Z9L D   5      10.343  93.932 127.9420  0.00  0.00     0.000 C
ATOM     96   S  Z9L D   5      10.380  95.441 129.2410  0.00  0.00     0.000 S
ATOM     97   O  Z9L D   5       9.672  95.161 127.8620  0.00  0.00     0.000 O
ATOM     98   O  Z9L D   5      11.774  95.663 128.9540  0.00  0.00     0.000 OA
ATOM     99   O  Z9L D   5       9.969  94.616 130.3270  0.00  0.00     0.000 OA
ATOM    100   O  Z9L D   5       9.680  96.693 129.0960  0.00  0.00     0.000 O
ENDBRANCH 81 95
ENDBRANCH 76 80
ENDBRANCH 60 76
ENDBRANCH 59 63
ENDBRANCH 37 59
ENDBRANCH 36 40
ENDBRANCH 23 36
ENDBRANCH 22 26
ENDBRANCH 1 22
TORSDOF 19
ENDMDL
MODEL 100
REMARK VINA RESULT:      -0.4     46.293     52.926
ROOT
ATOM      1  C1  Z9H D   1      59.802   5.467  12.4790  0.00  0.00     0.000 C
ATOM      2  C2  Z9H D   1      58.586   4.841  11.7550  0.00  0.00     0.000 C
ATOM      3  C3  Z9H D   1      58.250   3.734  12.8020  0.00  0.00     0.000 C
ATOM      4  C4  Z9H D   1      59.473   2.835  13.2560  0.00  0.00     0.000 C
ATOM      5  C5  Z9H D   1      60.874   3.431  13.6820  0.00  0.00     0.000 C
ATOM      6  O5  Z9H D   1      60.928   4.638  12.8810  0.00  0.00     0.000 O
ATOM      7   O  Z9H D   1      57.163   2.914  12.3700  0.00  0.00     0.000 O
ATOM      8   C  Z9H D   1      55.879   3.254  12.9190  0.00  0.00     0.000 C
ATOM      9   O  Z9H D   1      58.994   2.054  14.3550  0.00  0.00     0.000 O
ATOM     10   C  Z9H D   1      58.602   0.715  14.0370  0.00  0.00     0.000 C
ENDROOT
BRANCH 2 11
ATOM     11   O  Z9H D   1      57.601   5.824  11.9340  0.00  0.00     0.000 O
ATOM     12   O  Z9H D   1      56.875   6.862  10.5360  0.00  0.00     0.000 OA
ATOM     13   S  Z9H D   1      57.839   5.829  10.3630  0.00  0.00     0.000 S
ATOM     14   O  Z9H D   1      57.298   4.615   9.8220  0.00  0.00     0.000 OA
ATOM     15   O  Z9H D   1      59.125   6.391  10.0190  0.00  0.00     0.000 O
ENDBRANCH 2 11
BRANCH 5 16
ATOM     16   C  Z9H D   1      62.138   2.335  13.6920  0.00  0.00     0.000 C
ATOM     17   S  Z9H D   1      63.816   1.792  14.6550  0.00  0.00     0.000 S
ATOM     18   O  Z9H D   1      62.342   2.290  15.0840  0.00  0.00     0.000 O
ATOM     19   O  Z9H D   1      64.623   2.786  14.0080  0.00  0.00     0.000 O
ATOM     20   O  Z9H D   1      63.774   0.432  14.2430  0.00  0.00     0.000 OA
ATOM     21   O  Z9H D   1      63.981   1.812  16.0790  0.00  0.00     0.000 OA
ENDBRANCH 5 16
BRANCH 1 22
ATOM     22  O4  GU1 D   2      59.488   6.129  13.7570  0.00  0.00     0.000 O
BRANCH 22 26
ATOM     23  C1  GU1 D   2      60.433   9.272  16.2470  0.00  0.00     0.000 C
ATOM     24  C2  GU1 D   2      60.538   9.579  14.7610  0.00  0.00     0.000 C
ATOM     25  C3  GU1 D   2      59.818   8.517  13.9820  0.00  0.00     0.000 C
ATOM     26  C4  GU1 D   2      60.310   7.130  14.3680  0.00  0.00     0.000 C
ATOM     27  C5  GU1 D   2      60.261   6.961  15.8890  0.00  0.00     0.000 C
ATOM     28  O5  GU1 D   2      61.000   7.998  16.5300  0.00  0.00     0.000 O
ATOM     29   O  GU1 D   2      59.962  10.838  14.4360  0.00  0.00     0.000 O
ATOM     30   C  GU1 D   2      60.904  11.898  14.3560  0.00  0.00     0.000 C
ATOM     31   C  GU1 D   2      59.014   9.337  11.8660  0.00  0.00     0.000 C
ATOM     32   O  GU1 D   2      60.078   8.724  12.5900  0.00  0.00     0.000 O
BRANCH 27 33
ATOM     33   C  GU1 D   2      60.856   5.639  16.3120  0.00  0.00     0.000 C
ATOM     34   O  GU1 D   2      62.055   5.483  16.1990  0.00  0.00     0.000 OA
ATOM     35   O  GU1 D   2      60.145   4.753  16.7600  0.00  0.00     0.000 O
ENDBRANCH 27 33
BRANCH 23 36
ATOM     36  O4  GU6 D   3      61.243   9.998  17.1930  0.00  0.00     0.000 O
BRANCH 36 40
ATOM     37  C1  GU6 D   3      64.196  11.151  19.7710  0.00  0.00     0.000 C
ATOM     38  C2  GU6 D   3      62.839  11.780  20.0630  0.00  0.00     0.000 C
ATOM     39  C3  GU6 D   3      61.777  11.093  19.2450  0.00  0.00     0.000 C
ATOM     40  C4  GU6 D   3      62.218  10.158  18.2030  0.00  0.00     0.000 C
ATOM     41  C5  GU6 D   3      63.509  10.714  17.5150  0.00  0.00     0.000 C
ATOM     42  O5  GU6 D   3      64.477  11.305  18.3890  0.00  0.00     0.000 O
BRANCH 38 43
ATOM     43   O  GU6 D   3      62.529  11.677  21.4400  0.00  0.00     0.000 O
ATOM     44   S  GU6 D   3      62.211  13.005  22.1140  0.00  0.00     0.000 S
ATOM     45   O  GU6 D   3      63.479  13.672  22.4570  0.00  0.00     0.000 OA
ATOM     46   O  GU6 D   3      61.456  13.845  21.1660  0.00  0.00     0.000 O
ATOM     47   O  GU6 D   3      61.407  12.747  23.3040  0.00  0.00     0.000 OA
ENDBRANCH 38 43
BRANCH 39 48
ATOM     48   O  GU6 D   3      60.414  11.164  19.6160  0.00  0.00     0.000 O
ATOM     49   S  GU6 D   3      59.555  10.165  20.3890  0.00  0.00     0.000 S
ATOM     50   O  GU6 D   3      60.179   9.855  21.6810  0.00  0.00     0.000 OA
ATOM     51   O  GU6 D   3      58.288  10.886  20.5710  0.00  0.00     0.000 OA
ATOM     52   O  GU6 D   3      59.414   8.930  19.5860  0.00  0.00     0.000 O
ENDBRANCH 39 48
BRANCH 41 53
ATOM     53   C  GU6 D   3      63.886  10.701  16.0580  0.00  0.00     0.000 C
ATOM     54   O  GU6 D   3      64.002   9.310  15.9030  0.00  0.00     0.000 O
ATOM     55   S  GU6 D   3      64.496   8.713  14.5780  0.00  0.00     0.000 S
ATOM     56   O  GU6 D   3      65.908   9.131  14.4210  0.00  0.00     0.000 O
ATOM     57   O  GU6 D   3      64.392   7.249  14.6570  0.00  0.00     0.000 OA
ATOM     58   O  GU6 D   3      63.651   9.277  13.5010  0.00  0.00     0.000 OA
ENDBRANCH 41 53
BRANCH 37 59
ATOM     59  O4  Z9K D   4      64.586   9.812  20.1420  0.00  0.00     0.000 O
BRANCH 59 63
ATOM     60  C1  Z9K D   4      65.874   6.936  22.4910  0.00  0.00     0.000 C
ATOM     61  C2  Z9K D   4      66.216   8.192  23.3380  0.00  0.00     0.000 C
ATOM     62  C3  Z9K D   4      65.530   9.336  22.4720  0.00  0.00     0.000 C
ATOM     63  C4  Z9K D   4      65.732   9.341  20.9090  0.00  0.00     0.000 C
ATOM     64  C5  Z9K D   4      66.024   7.979  20.2610  0.00  0.00     0.000 C
ATOM     65  O5  Z9K D   4      65.291   7.056  21.1090  0.00  0.00     0.000 O
ATOM     66   O  Z9K D   4      65.889  10.663  22.8950  0.00  0.00     0.000 O
ATOM     67   C  Z9K D   4      65.094  11.176  23.9520  0.00  0.00     0.000 C
BRANCH 61 68
ATOM     68   O  Z9K D   4      65.478   8.101  24.5250  0.00  0.00     0.000 O
ATOM     69   O  Z9K D   4      67.741   9.228  24.9260  0.00  0.00     0.000 OA
ATOM     70   S  Z9K D   4      67.001   8.011  25.0700  0.00  0.00     0.000 S
ATOM     71   O  Z9K D   4      67.504   6.693  24.8290  0.00  0.00     0.000 OA
ATOM     72   O  Z9K D   4      66.242   8.016  26.2790  0.00  0.00     0.000 OA
ENDBRANCH 61 68
BRANCH 64 73
ATOM     73   C  Z9K D   4      65.708   8.010  18.7510  0.00  0.00     0.000 C
ATOM     74   O  Z9K D   4      66.444   8.643  17.9400  0.00  0.00     0.000 O
ATOM     75   O  Z9K D   4      64.718   7.406  18.2700  0.00  0.00     0.000 OA
ENDBRANCH 64 73
BRANCH 60 76
ATOM     76  O4  Z9L D   5      66.721   5.822  22.1600  0.00  0.00     0.000 O
BRANCH 76 80
ATOM     77  C1  Z9L D   5      66.817   1.863  21.6270  0.00  0.00     0.000 C
ATOM     78  C2  Z9L D   5      67.153   2.535  20.2100  0.00  0.00     0.000 C
ATOM     79  C3  Z9L D   5      67.563   4.146  20.5230  0.00  0.00     0.000 C
ATOM     80  C4  Z9L D   5      66.423   4.551  21.6410  0.00  0.00     0.000 C
ATOM     81  C5  Z9L D   5      65.910   3.769  22.9540  0.00  0.00     0.000 C
ATOM     82  O5  Z9L D   5      65.811   2.385  22.5870  0.00  0.00     0.000 O
ATOM     83   C  Z9L D   5      67.917   1.020  23.6200  0.00  0.00     0.000 C
ATOM     84   C  Z9L D   5      67.917   1.020  23.6200  0.00  0.00     0.000 C
BRANCH 78 85
ATOM     85   O  Z9L D   5      68.256   1.880  19.6710  0.00  0.00     0.000 O
ATOM     86   O  Z9L D   5      68.216   0.736  18.1220  0.00  0.00     0.000 OA
ATOM     87   S  Z9L D   5      67.113   1.510  18.6040  0.00  0.00     0.000 S
ATOM     88   O  Z9L D   5      66.902   2.526  17.6030  0.00  0.00     0.000 OA
ATOM     89   O  Z9L D   5      66.141   0.558  19.0210  0.00  0.00     0.000 OA
ENDBRANCH 78 85
BRANCH 79 90
ATOM     90   O  Z9L D   5      67.239   4.970  19.4490  0.00  0.00     0.000 O
ATOM     91   S  Z9L D   5      68.799   5.274  19.5570  0.00  0.00     0.000 S
ATOM     92   O  Z9L D   5      69.793   4.234  19.4950  0.00  0.00     0.000 OA
ATOM     93   O  Z9L D   5      69.002   6.446  20.3720  0.00  0.00     0.000 O
ATOM     94   O  Z9L D   5      68.574   5.723  18.2210  0.00  0.00     0.000 OA
ENDBRANCH 79 90
BRANCH 81 95
ATOM     95   C  Z9L D   5      64.647   4.459  23.8160  0.00  0.00     0.000 C
ATOM     96   S  Z9L D   5      62.673   4.470  24.0790  0.00  0.00     0.000 S
ATOM     97   O  Z9L D   5      63.643   4.302  22.8500  0.00  0.00     0.000 O
ATOM     98   O  Z9L D   5      62.724   5.858  24.4600  0.00  0.00     0.000 OA
ATOM     99   O  Z9L D   5      62.720   3.432  25.0520  0.00  0.00     0.000 OA
ATOM    100   O  Z9L D   5      61.684   4.320  23.0390  0.00  0.00     0.000 O
ENDBRANCH 81 95
ENDBRANCH 76 80
ENDBRANCH 60 76
ENDBRANCH 59 63
ENDBRANCH 37 59
ENDBRANCH 36 40
ENDBRANCH 23 36
ENDBRANCH 22 26
ENDBRANCH 1 22
TORSDOF 19
ENDMDL
