MODEL 1
REMARK VINA RESULT:      -5.3      0.000      0.000
ROOT
ATOM      1  C1  IDS C   1       9.561  11.683  28.2540  0.00  0.00     0.000 C
ATOM      2  C2  IDS C   1       8.646  11.146  29.3400  0.00  0.00     0.000 C
ATOM      3  C3  IDS C   1       9.453  10.478  30.4460  0.00  0.00     0.000 C
ATOM      4  C4  IDS C   1      10.569  11.395  30.9460  0.00  0.00     0.000 C
ATOM      5  C5  IDS C   1      11.373  11.955  29.7560  0.00  0.00     0.000 C
ATOM      6  O5  IDS C   1      10.505  12.589  28.8220  0.00  0.00     0.000 O
ATOM      7   O  IDS C   1       9.996   9.248  29.9630  0.00  0.00     0.000 O
ATOM      9  HD  IDS C   1      10.575   9.449  30.5750  0.00  0.00     0.000 HD
ATOM      9   O  IDS C   1       9.985  12.483  31.6800  0.00  0.00     0.000 O
ATOM     11  HD  IDS C   1      10.563  12.684  32.2920  0.00  0.00     0.000 HD
ENDROOT
BRANCH 2 11
ATOM     11   O  IDS C   1       7.875  12.252  29.9510  0.00  0.00     0.000 O
ATOM     12   S  IDS C   1       6.290  12.142  30.1220  0.00  0.00     0.000 S
ATOM     13   O  IDS C   1       6.066  12.854  31.3610  0.00  0.00     0.000 OA
ATOM     14   O  IDS C   1       5.913  10.751  30.1960  0.00  0.00     0.000 OA
ATOM     15   O  IDS C   1       5.752  12.816  28.9670  0.00  0.00     0.000 OA
ENDBRANCH 2 11
BRANCH 5 16
ATOM     16   C  IDS C   1      12.428  12.967  30.1680  0.00  0.00     0.000 C
ATOM     17   O  IDS C   1      13.585  12.611  30.2310  0.00  0.00     0.000 OA
ATOM     18   O  IDS C   1      12.124  14.095  30.4420  0.00  0.00     0.000 OA
ENDBRANCH 5 16
BRANCH 1 19
ATOM     19  O4  SGN C   2      10.041  10.840  27.3350  0.00  0.00     0.000 O
BRANCH 19 23
ATOM     20  C1  SGN C   2      11.794  10.609  23.5530  0.00  0.00     0.000 C
ATOM     21  C2  SGN C   2      12.750  10.755  24.7420  0.00  0.00     0.000 C
ATOM     22  C3  SGN C   2      12.024  10.392  26.0350  0.00  0.00     0.000 C
ATOM     23  C4  SGN C   2      10.783  11.264  26.1890  0.00  0.00     0.000 C
ATOM     24  C5  SGN C   2       9.907  11.148  24.9390  0.00  0.00     0.000 C
ATOM     25  O5  SGN C   2      10.683  11.464  23.7690  0.00  0.00     0.000 O
ATOM     26   O  SGN C   2      12.892  10.537  27.1530  0.00  0.00     0.000 O
ATOM     28  HD  SGN C   2      13.502  10.585  27.7660  0.00  0.00     0.000 HD
BRANCH 21 30
ATOM     28   N  SGN C   2      13.706  10.543  23.6480  0.00  0.00     0.000 N
ATOM     30  HD  SGN C   2      14.043   9.751  23.5510  0.00  0.00     0.000 HD
ATOM     30   S  SGN C   2      15.283  10.655  23.8910  0.00  0.00     0.000 S
ATOM     31   O  SGN C   2      15.560   9.776  24.9760  0.00  0.00     0.000 OA
ATOM     32   O  SGN C   2      15.942  10.478  22.6500  0.00  0.00     0.000 OA
ATOM     33   O  SGN C   2      15.497  12.148  24.3140  0.00  0.00     0.000 OA
ENDBRANCH 21 30
BRANCH 24 34
ATOM     34   C  SGN C   2       8.727  12.090  24.9350  0.00  0.00     0.000 C
ATOM     35   O  SGN C   2       7.544  11.359  25.3050  0.00  0.00     0.000 O
ATOM     36   S  SGN C   2       6.139  12.010  24.9170  0.00  0.00     0.000 S
ATOM     37   O  SGN C   2       6.230  12.263  23.4920  0.00  0.00     0.000 OA
ATOM     38   O  SGN C   2       5.145  11.022  25.2610  0.00  0.00     0.000 OA
ATOM     39   O  SGN C   2       6.074  13.205  25.7210  0.00  0.00     0.000 OA
ENDBRANCH 24 34
BRANCH 20 40
ATOM     40  O4  IDS C   3      11.354   9.386  23.2630  0.00  0.00     0.000 O
BRANCH 40 44
ATOM     41  C1  IDS C   3      10.978   6.113  22.0080  0.00  0.00     0.000 C
ATOM     42  C2  IDS C   3      12.253   6.917  21.7710  0.00  0.00     0.000 C
ATOM     43  C3  IDS C   3      11.917   8.287  21.1890  0.00  0.00     0.000 C
ATOM     44  C4  IDS C   3      10.834   8.990  21.9920  0.00  0.00     0.000 C
ATOM     45  C5  IDS C   3       9.632   8.044  22.1930  0.00  0.00     0.000 C
ATOM     46  O5  IDS C   3      10.072   6.844  22.8310  0.00  0.00     0.000 O
ATOM     47   O  IDS C   3      11.497   8.136  19.8350  0.00  0.00     0.000 O
ATOM     49  HD  IDS C   3      12.104   8.154  20.4530  0.00  0.00     0.000 HD
BRANCH 42 49
ATOM     49   O  IDS C   3      12.978   7.110  23.0490  0.00  0.00     0.000 O
ATOM     50   S  IDS C   3      14.458   6.519  23.2190  0.00  0.00     0.000 S
ATOM     51   O  IDS C   3      15.260   7.384  22.3820  0.00  0.00     0.000 OA
ATOM     52   O  IDS C   3      14.480   5.135  22.7740  0.00  0.00     0.000 OA
ATOM     53   O  IDS C   3      14.776   6.643  24.6260  0.00  0.00     0.000 OA
ENDBRANCH 42 49
BRANCH 45 54
ATOM     54   C  IDS C   3       8.515   8.657  23.0230  0.00  0.00     0.000 C
ATOM     55   O  IDS C   3       7.853   9.552  22.5650  0.00  0.00     0.000 OA
ATOM     56   O  IDS C   3       8.307   8.255  24.1510  0.00  0.00     0.000 OA
ENDBRANCH 45 54
BRANCH 41 57
ATOM     57  O4  SGN C   4      10.598   5.624  20.8220  0.00  0.00     0.000 O
BRANCH 57 61
ATOM     58  C1  SGN C   4       7.668   3.023  19.3440  0.00  0.00     0.000 C
ATOM     59  C2  SGN C   4       7.197   4.110  20.3240  0.00  0.00     0.000 C
ATOM     60  C3  SGN C   4       8.245   5.222  20.4640  0.00  0.00     0.000 C
ATOM     61  C4  SGN C   4       9.586   4.612  20.8390  0.00  0.00     0.000 C
ATOM     62  C5  SGN C   4       9.976   3.523  19.8410  0.00  0.00     0.000 C
ATOM     63  O5  SGN C   4       8.938   2.529  19.7430  0.00  0.00     0.000 O
BRANCH 59 66
ATOM     64   N  SGN C   4       5.860   4.462  19.8350  0.00  0.00     0.000 N
ATOM     66  HD  SGN C   4       6.637   4.481  20.2160  0.00  0.00     0.000 HD
ATOM     66   O  SGN C   4       3.474   4.872  20.1000  0.00  0.00     0.000 OA
ATOM     67   O  SGN C   4       4.542   3.018  21.3100  0.00  0.00     0.000 OA
ATOM     68   S  SGN C   4       4.625   4.517  20.8580  0.00  0.00     0.000 S
ATOM     69   O  SGN C   4       5.000   5.314  21.9700  0.00  0.00     0.000 OA
ENDBRANCH 59 66
BRANCH 62 70
ATOM     70   C  SGN C   4      11.236   2.809  20.2640  0.00  0.00     0.000 C
ATOM     71   S  SGN C   4      12.257   1.361  22.1160  0.00  0.00     0.000 S
ATOM     72   O  SGN C   4      12.817   0.487  21.1050  0.00  0.00     0.000 OA
ATOM     73   O  SGN C   4      13.132   2.458  22.4760  0.00  0.00     0.000 OA
ATOM     74   O  SGN C   4      11.712   0.654  23.2530  0.00  0.00     0.000 OA
ATOM     75   O  SGN C   4      10.983   2.013  21.4280  0.00  0.00     0.000 O
ENDBRANCH 62 70
ENDBRANCH 57 61
ENDBRANCH 41 57
ENDBRANCH 40 44
ENDBRANCH 20 40
ENDBRANCH 19 23
ENDBRANCH 1 19
TORSDOF 14
ENDMDL
MODEL 2
REMARK VINA RESULT:      -5.0      4.138      7.372
ROOT
ATOM      1  C1  IDS C   1      15.628  11.920  33.5960  0.00  0.00     0.000 C
ATOM      2  C2  IDS C   1      14.850  11.495  34.8280  0.00  0.00     0.000 C
ATOM      3  C3  IDS C   1      14.849   9.978  34.9710  0.00  0.00     0.000 C
ATOM      4  C4  IDS C   1      16.267   9.415  34.8860  0.00  0.00     0.000 C
ATOM      5  C5  IDS C   1      16.994   9.984  33.6510  0.00  0.00     0.000 C
ATOM      6  O5  IDS C   1      16.958  11.408  33.6650  0.00  0.00     0.000 O
ATOM      7   O  IDS C   1      14.021   9.405  33.9580  0.00  0.00     0.000 O
ATOM      9  HD  IDS C   1      14.572   8.753  34.1020  0.00  0.00     0.000 HD
ATOM      9   O  IDS C   1      16.987   9.781  36.0730  0.00  0.00     0.000 O
ATOM     11  HD  IDS C   1      17.538   9.128  36.2180  0.00  0.00     0.000 HD
ENDROOT
BRANCH 2 11
ATOM     11   O  IDS C   1      15.473  12.061  36.0460  0.00  0.00     0.000 O
ATOM     12   S  IDS C   1      14.582  12.802  37.1470  0.00  0.00     0.000 S
ATOM     13   O  IDS C   1      15.257  12.449  38.3760  0.00  0.00     0.000 OA
ATOM     14   O  IDS C   1      13.230  12.302  37.0830  0.00  0.00     0.000 OA
ATOM     15   O  IDS C   1      14.686  14.201  36.8160  0.00  0.00     0.000 OA
ENDBRANCH 2 11
BRANCH 5 16
ATOM     16   C  IDS C   1      18.448   9.559  33.5620  0.00  0.00     0.000 C
ATOM     17   O  IDS C   1      19.167  10.100  32.7490  0.00  0.00     0.000 OA
ATOM     18   O  IDS C   1      18.881   8.692  34.2710  0.00  0.00     0.000 OA
ENDBRANCH 5 16
BRANCH 1 19
ATOM     19  O4  SGN C   2      15.037  11.851  32.4000  0.00  0.00     0.000 O
BRANCH 19 23
ATOM     20  C1  SGN C   2      14.786  13.597  28.6160  0.00  0.00     0.000 C
ATOM     21  C2  SGN C   2      16.196  13.320  29.1500  0.00  0.00     0.000 C
ATOM     22  C3  SGN C   2      16.125  12.316  30.2970  0.00  0.00     0.000 C
ATOM     23  C4  SGN C   2      15.197  12.844  31.3850  0.00  0.00     0.000 C
ATOM     24  C5  SGN C   2      13.832  13.186  30.7820  0.00  0.00     0.000 C
ATOM     25  O5  SGN C   2      13.999  14.101  29.6830  0.00  0.00     0.000 O
ATOM     26   O  SGN C   2      17.425  12.059  30.8160  0.00  0.00     0.000 O
ATOM     28  HD  SGN C   2      18.252  11.907  31.0250  0.00  0.00     0.000 HD
BRANCH 21 30
ATOM     28   N  SGN C   2      16.506  13.704  27.7660  0.00  0.00     0.000 N
ATOM     30  HD  SGN C   2      16.719  13.077  27.2090  0.00  0.00     0.000 HD
ATOM     30   S  SGN C   2      18.013  13.966  27.2960  0.00  0.00     0.000 S
ATOM     31   O  SGN C   2      18.730  12.791  27.6620  0.00  0.00     0.000 OA
ATOM     32   O  SGN C   2      17.994  14.391  25.9460  0.00  0.00     0.000 OA
ATOM     33   O  SGN C   2      18.472  15.192  28.1560  0.00  0.00     0.000 OA
ENDBRANCH 21 30
BRANCH 24 34
ATOM     34   C  SGN C   2      12.890  13.856  31.7540  0.00  0.00     0.000 C
ATOM     35   O  SGN C   2      12.244  14.959  31.0950  0.00  0.00     0.000 O
ATOM     36   S  SGN C   2      11.587  16.077  32.0260  0.00  0.00     0.000 S
ATOM     37   O  SGN C   2      12.654  16.490  32.9160  0.00  0.00     0.000 OA
ATOM     38   O  SGN C   2      11.149  17.121  31.1310  0.00  0.00     0.000 OA
ATOM     39   O  SGN C   2      10.506  15.388  32.6880  0.00  0.00     0.000 OA
ENDBRANCH 24 34
BRANCH 20 40
ATOM     40  O4  IDS C   3      14.139  12.590  28.0330  0.00  0.00     0.000 O
BRANCH 40 44
ATOM     41  C1  IDS C   3      13.089  10.131  25.7350  0.00  0.00     0.000 C
ATOM     42  C2  IDS C   3      14.289  11.030  25.4500  0.00  0.00     0.000 C
ATOM     43  C3  IDS C   3      13.909  12.497  25.6320  0.00  0.00     0.000 C
ATOM     44  C4  IDS C   3      13.207  12.736  26.9600  0.00  0.00     0.000 C
ATOM     45  C5  IDS C   3      12.052  11.728  27.1320  0.00  0.00     0.000 C
ATOM     46  O5  IDS C   3      12.563  10.397  27.0330  0.00  0.00     0.000 O
ATOM     47   O  IDS C   3      13.067  12.905  24.5570  0.00  0.00     0.000 O
ATOM     49  HD  IDS C   3      13.838  12.696  24.8910  0.00  0.00     0.000 HD
BRANCH 42 49
ATOM     49   O  IDS C   3      15.398  10.708  26.3780  0.00  0.00     0.000 O
ATOM     50   S  IDS C   3      16.742  10.048  25.8100  0.00  0.00     0.000 S
ATOM     51   O  IDS C   3      17.370  11.134  25.0910  0.00  0.00     0.000 OA
ATOM     52   O  IDS C   3      16.403   8.929  24.9450  0.00  0.00     0.000 OA
ATOM     53   O  IDS C   3      17.500   9.628  26.9690  0.00  0.00     0.000 OA
ENDBRANCH 42 49
BRANCH 45 54
ATOM     54   C  IDS C   3      11.319  11.872  28.4560  0.00  0.00     0.000 C
ATOM     55   O  IDS C   3      10.883  12.946  28.7830  0.00  0.00     0.000 OA
ATOM     56   O  IDS C   3      11.190  10.909  29.1870  0.00  0.00     0.000 OA
ENDBRANCH 45 54
BRANCH 41 57
ATOM     57  O4  SGN C   4      12.307  10.165  24.6490  0.00  0.00     0.000 O
BRANCH 57 61
ATOM     58  C1  SGN C   4       8.610   8.636  23.4150  0.00  0.00     0.000 C
ATOM     59  C2  SGN C   4       8.580   9.735  24.4900  0.00  0.00     0.000 C
ATOM     60  C3  SGN C   4       9.918  10.485  24.5540  0.00  0.00     0.000 C
ATOM     61  C4  SGN C   4      11.050   9.489  24.7410  0.00  0.00     0.000 C
ATOM     62  C5  SGN C   4      11.001   8.412  23.6580  0.00  0.00     0.000 C
ATOM     63  O5  SGN C   4       9.712   7.769  23.6400  0.00  0.00     0.000 O
BRANCH 59 66
ATOM     64   N  SGN C   4       7.402  10.559  24.2020  0.00  0.00     0.000 N
ATOM     66  HD  SGN C   4       8.153  10.264  24.5160  0.00  0.00     0.000 HD
ATOM     66   O  SGN C   4       5.242  11.549  24.7400  0.00  0.00     0.000 OA
ATOM     67   O  SGN C   4       5.727   9.230  25.3960  0.00  0.00     0.000 OA
ATOM     68   S  SGN C   4       6.243  10.708  25.3020  0.00  0.00     0.000 S
ATOM     69   O  SGN C   4       6.842  11.067  26.5370  0.00  0.00     0.000 OA
ENDBRANCH 59 66
BRANCH 62 70
ATOM     70   C  SGN C   4      12.031   7.337  23.8990  0.00  0.00     0.000 C
ATOM     71   S  SGN C   4      14.303   6.452  23.1090  0.00  0.00     0.000 S
ATOM     72   O  SGN C   4      14.716   6.318  24.4930  0.00  0.00     0.000 OA
ATOM     73   O  SGN C   4      13.649   5.268  22.5890  0.00  0.00     0.000 OA
ATOM     74   O  SGN C   4      15.338   6.972  22.2460  0.00  0.00     0.000 OA
ATOM     75   O  SGN C   4      13.206   7.599  23.1230  0.00  0.00     0.000 O
ENDBRANCH 62 70
ENDBRANCH 57 61
ENDBRANCH 41 57
ENDBRANCH 40 44
ENDBRANCH 20 40
ENDBRANCH 19 23
ENDBRANCH 1 19
TORSDOF 14
ENDMDL
MODEL 3
REMARK VINA RESULT:      -4.6      4.709     11.561
ROOT
ATOM      1  C1  IDS C   1      11.834   9.625  22.8740  0.00  0.00     0.000 C
ATOM      2  C2  IDS C   1      11.438   8.208  23.2480  0.00  0.00     0.000 C
ATOM      3  C3  IDS C   1      10.400   8.212  24.3630  0.00  0.00     0.000 C
ATOM      4  C4  IDS C   1       9.228   9.133  24.0220  0.00  0.00     0.000 C
ATOM      5  C5  IDS C   1       9.749  10.512  23.5680  0.00  0.00     0.000 C
ATOM      6  O5  IDS C   1      10.675  10.366  22.4960  0.00  0.00     0.000 O
ATOM      7   O  IDS C   1      11.016   8.617  25.5860  0.00  0.00     0.000 O
ATOM      9  HD  IDS C   1      10.198   8.864  25.7290  0.00  0.00     0.000 HD
ATOM      9   O  IDS C   1       8.461   8.541  22.9630  0.00  0.00     0.000 O
ATOM     11  HD  IDS C   1       7.643   8.788  23.1060  0.00  0.00     0.000 HD
ENDROOT
BRANCH 2 11
ATOM     11   O  IDS C   1      10.843   7.519  22.0810  0.00  0.00     0.000 O
ATOM     12   S  IDS C   1      11.499   6.182  21.5020  0.00  0.00     0.000 S
ATOM     13   O  IDS C   1      10.340   5.438  21.0610  0.00  0.00     0.000 OA
ATOM     14   O  IDS C   1      12.230   5.515  22.5530  0.00  0.00     0.000 OA
ATOM     15   O  IDS C   1      12.340   6.629  20.4200  0.00  0.00     0.000 OA
ENDBRANCH 2 11
BRANCH 5 16
ATOM     16   C  IDS C   1       8.646  11.445  23.1030  0.00  0.00     0.000 C
ATOM     17   O  IDS C   1       8.193  12.252  23.8870  0.00  0.00     0.000 OA
ATOM     18   O  IDS C   1       8.215  11.380  21.9840  0.00  0.00     0.000 OA
ENDBRANCH 5 16
BRANCH 1 19
ATOM     19  O4  SGN C   2      12.719  10.274  23.6370  0.00  0.00     0.000 O
BRANCH 19 23
ATOM     20  C1  SGN C   2      15.964  12.900  23.6380  0.00  0.00     0.000 C
ATOM     21  C2  SGN C   2      14.587  13.514  23.3610  0.00  0.00     0.000 C
ATOM     22  C3  SGN C   2      13.492  12.552  23.8160  0.00  0.00     0.000 C
ATOM     23  C4  SGN C   2      13.668  11.208  23.1200  0.00  0.00     0.000 C
ATOM     24  C5  SGN C   2      15.087  10.682  23.3560  0.00  0.00     0.000 C
ATOM     25  O5  SGN C   2      16.049  11.668  22.9400  0.00  0.00     0.000 O
ATOM     26   O  SGN C   2      12.206  13.100  23.5510  0.00  0.00     0.000 O
ATOM     28  HD  SGN C   2      11.467  13.532  23.4200  0.00  0.00     0.000 HD
BRANCH 21 30
ATOM     28   N  SGN C   2      15.395  14.732  23.5070  0.00  0.00     0.000 N
ATOM     30  HD  SGN C   2      15.312  15.188  24.2380  0.00  0.00     0.000 HD
ATOM     30   S  SGN C   2      14.807  16.168  23.1180  0.00  0.00     0.000 S
ATOM     31   O  SGN C   2      13.588  16.285  23.8450  0.00  0.00     0.000 OA
ATOM     32   O  SGN C   2      15.828  17.133  23.2900  0.00  0.00     0.000 OA
ATOM     33   O  SGN C   2      14.530  16.063  21.5800  0.00  0.00     0.000 OA
ENDBRANCH 21 30
BRANCH 24 34
ATOM     34   C  SGN C   2      15.404   9.424  22.5830  0.00  0.00     0.000 C
ATOM     35   O  SGN C   2      15.185   8.284  23.4330  0.00  0.00     0.000 O
ATOM     36   S  SGN C   2      15.890   6.916  23.0080  0.00  0.00     0.000 S
ATOM     37   O  SGN C   2      17.291   7.254  22.8570  0.00  0.00     0.000 OA
ATOM     38   O  SGN C   2      15.634   5.995  24.0880  0.00  0.00     0.000 OA
ATOM     39   O  SGN C   2      15.238   6.558  21.7720  0.00  0.00     0.000 OA
ENDBRANCH 24 34
BRANCH 20 40
ATOM     40  O4  IDS C   3      16.307  12.707  24.9100  0.00  0.00     0.000 O
BRANCH 40 44
ATOM     41  C1  IDS C   3      17.381  12.807  28.2660  0.00  0.00     0.000 C
ATOM     42  C2  IDS C   3      17.156  14.084  27.4620  0.00  0.00     0.000 C
ATOM     43  C3  IDS C   3      17.916  14.021  26.1390  0.00  0.00     0.000 C
ATOM     44  C4  IDS C   3      17.650  12.720  25.3990  0.00  0.00     0.000 C
ATOM     45  C5  IDS C   3      17.870  11.521  26.3460  0.00  0.00     0.000 C
ATOM     46  O5  IDS C   3      17.030  11.661  27.4940  0.00  0.00     0.000 O
ATOM     47   O  IDS C   3      19.312  14.161  26.3890  0.00  0.00     0.000 O
ATOM     49  HD  IDS C   3      18.509  14.478  26.3200  0.00  0.00     0.000 HD
BRANCH 42 49
ATOM     49   O  IDS C   3      15.713  14.255  27.1710  0.00  0.00     0.000 O
ATOM     50   S  IDS C   3      14.971  15.607  27.6050  0.00  0.00     0.000 S
ATOM     51   O  IDS C   3      15.495  16.587  26.6800  0.00  0.00     0.000 OA
ATOM     52   O  IDS C   3      15.297  15.914  28.9880  0.00  0.00     0.000 OA
ATOM     53   O  IDS C   3      13.556  15.360  27.4220  0.00  0.00     0.000 OA
ENDBRANCH 42 49
BRANCH 45 54
ATOM     54   C  IDS C   3      17.586  10.178  25.6940  0.00  0.00     0.000 C
ATOM     55   O  IDS C   3      18.224   9.834  24.7330  0.00  0.00     0.000 OA
ATOM     56   O  IDS C   3      16.706   9.464  26.1340  0.00  0.00     0.000 OA
ENDBRANCH 45 54
BRANCH 41 57
ATOM     57  O4  SGN C   4      18.585  12.914  28.8410  0.00  0.00     0.000 O
BRANCH 57 61
ATOM     58  C1  SGN C   4      21.277  10.482  30.9320  0.00  0.00     0.000 C
ATOM     59  C2  SGN C   4      20.987  10.096  29.4720  0.00  0.00     0.000 C
ATOM     60  C3  SGN C   4      20.337  11.259  28.7100  0.00  0.00     0.000 C
ATOM     61  C4  SGN C   4      19.107  11.735  29.4640  0.00  0.00     0.000 C
ATOM     62  C5  SGN C   4      19.462  12.072  30.9110  0.00  0.00     0.000 C
ATOM     63  O5  SGN C   4      20.088  10.947  31.5550  0.00  0.00     0.000 O
BRANCH 59 66
ATOM     64   N  SGN C   4      22.233   9.369  29.2090  0.00  0.00     0.000 N
ATOM     66  HD  SGN C   4      21.586   9.945  29.1890  0.00  0.00     0.000 HD
ATOM     66   O  SGN C   4      23.678   7.913  27.8960  0.00  0.00     0.000 OA
ATOM     67   O  SGN C   4      21.280   7.408  28.0930  0.00  0.00     0.000 OA
ATOM     68   S  SGN C   4      22.382   8.500  27.8680  0.00  0.00     0.000 S
ATOM     69   O  SGN C   4      22.008   9.312  26.7660  0.00  0.00     0.000 OA
ENDBRANCH 59 66
BRANCH 62 70
ATOM     70   C  SGN C   4      18.235  12.419  31.7170  0.00  0.00     0.000 C
ATOM     71   S  SGN C   4      16.201  11.408  32.9060  0.00  0.00     0.000 S
ATOM     72   O  SGN C   4      16.458  12.268  34.0450  0.00  0.00     0.000 OA
ATOM     73   O  SGN C   4      15.336  12.012  31.9140  0.00  0.00     0.000 OA
ATOM     74   O  SGN C   4      15.819  10.064  33.2720  0.00  0.00     0.000 OA
ATOM     75   O  SGN C   4      17.617  11.225  32.2110  0.00  0.00     0.000 O
ENDBRANCH 62 70
ENDBRANCH 57 61
ENDBRANCH 41 57
ENDBRANCH 40 44
ENDBRANCH 20 40
ENDBRANCH 19 23
ENDBRANCH 1 19
TORSDOF 14
ENDMDL
MODEL 4
REMARK VINA RESULT:      -4.6     10.440     15.514
ROOT
ATOM      1  C1  IDS C   1      23.970   4.704  33.3790  0.00  0.00     0.000 C
ATOM      2  C2  IDS C   1      23.148   3.560  33.9460  0.00  0.00     0.000 C
ATOM      3  C3  IDS C   1      22.660   2.642  32.8320  0.00  0.00     0.000 C
ATOM      4  C4  IDS C   1      23.813   2.212  31.9250  0.00  0.00     0.000 C
ATOM      5  C5  IDS C   1      24.634   3.441  31.4870  0.00  0.00     0.000 C
ATOM      6  O5  IDS C   1      25.063   4.184  32.6230  0.00  0.00     0.000 O
ATOM      7   O  IDS C   1      21.649   3.309  32.0740  0.00  0.00     0.000 O
ATOM      9  HD  IDS C   1      21.963   2.764  31.4780  0.00  0.00     0.000 HD
ATOM      9   O  IDS C   1      24.661   1.306  32.6470  0.00  0.00     0.000 O
ATOM     11  HD  IDS C   1      24.975   0.761  32.0520  0.00  0.00     0.000 HD
ENDROOT
BRANCH 2 11
ATOM     11   O  IDS C   1      23.971   2.748  34.8700  0.00  0.00     0.000 O
ATOM     12   S  IDS C   1      23.349   2.180  36.2280  0.00  0.00     0.000 S
ATOM     13   O  IDS C   1      24.026   0.909  36.3670  0.00  0.00     0.000 OA
ATOM     14   O  IDS C   1      21.920   2.044  36.0790  0.00  0.00     0.000 OA
ATOM     15   O  IDS C   1      23.726   3.144  37.2310  0.00  0.00     0.000 OA
ENDBRANCH 2 11
BRANCH 5 16
ATOM     16   C  IDS C   1      25.866   3.082  30.6770  0.00  0.00     0.000 C
ATOM     17   O  IDS C   1      25.809   3.147  29.4670  0.00  0.00     0.000 OA
ATOM     18   O  IDS C   1      26.875   2.722  31.2180  0.00  0.00     0.000 OA
ENDBRANCH 5 16
BRANCH 1 19
ATOM     19  O4  SGN C   2      23.340   5.755  32.8480  0.00  0.00     0.000 O
BRANCH 19 23
ATOM     20  C1  SGN C   2      23.541   9.864  32.1400  0.00  0.00     0.000 C
ATOM     21  C2  SGN C   2      24.394   8.971  31.2320  0.00  0.00     0.000 C
ATOM     22  C3  SGN C   2      23.896   7.530  31.3110  0.00  0.00     0.000 C
ATOM     23  C4  SGN C   2      23.919   7.058  32.7610  0.00  0.00     0.000 C
ATOM     24  C5  SGN C   2      23.126   8.032  33.6370  0.00  0.00     0.000 C
ATOM     25  O5  SGN C   2      23.634   9.368  33.4650  0.00  0.00     0.000 O
ATOM     26   O  SGN C   2      24.687   6.683  30.4860  0.00  0.00     0.000 O
ATOM     28  HD  SGN C   2      25.171   6.252  29.9110  0.00  0.00     0.000 HD
BRANCH 21 30
ATOM     28   N  SGN C   2      25.326   9.064  30.1010  0.00  0.00     0.000 N
ATOM     30  HD  SGN C   2      26.148   9.280  30.2690  0.00  0.00     0.000 HD
ATOM     30   S  SGN C   2      25.617  10.461  29.3780  0.00  0.00     0.000 S
ATOM     31   O  SGN C   2      26.004  11.351  30.4210  0.00  0.00     0.000 OA
ATOM     32   O  SGN C   2      26.487  10.230  28.2860  0.00  0.00     0.000 OA
ATOM     33   O  SGN C   2      24.229  10.875  28.7780  0.00  0.00     0.000 OA
ENDBRANCH 21 30
BRANCH 24 34
ATOM     34   C  SGN C   2      23.215   7.729  35.1140  0.00  0.00     0.000 C
ATOM     35   O  SGN C   2      21.895   7.449  35.6140  0.00  0.00     0.000 O
ATOM     36   S  SGN C   2      21.676   7.569  37.1900  0.00  0.00     0.000 S
ATOM     37   O  SGN C   2      22.143   8.900  37.5270  0.00  0.00     0.000 OA
ATOM     38   O  SGN C   2      20.260   7.387  37.4020  0.00  0.00     0.000 OA
ATOM     39   O  SGN C   2      22.487   6.509  37.7370  0.00  0.00     0.000 OA
ENDBRANCH 24 34
BRANCH 20 40
ATOM     40  O4  IDS C   3      22.258  10.020  31.8200  0.00  0.00     0.000 O
BRANCH 40 44
ATOM     41  C1  IDS C   3      19.117  10.816  30.4310  0.00  0.00     0.000 C
ATOM     42  C2  IDS C   3      20.416  11.092  29.6790  0.00  0.00     0.000 C
ATOM     43  C3  IDS C   3      21.382  11.882  30.5580  0.00  0.00     0.000 C
ATOM     44  C4  IDS C   3      21.537  11.250  31.9320  0.00  0.00     0.000 C
ATOM     45  C5  IDS C   3      20.148  10.984  32.5490  0.00  0.00     0.000 C
ATOM     46  O5  IDS C   3      19.385  10.157  31.6670  0.00  0.00     0.000 O
ATOM     47   O  IDS C   3      20.914  13.222  30.6900  0.00  0.00     0.000 O
ATOM     49  HD  IDS C   3      21.286  12.579  30.2440  0.00  0.00     0.000 HD
BRANCH 42 49
ATOM     49   O  IDS C   3      21.062   9.816  29.2920  0.00  0.00     0.000 O
ATOM     50   S  IDS C   3      20.474   8.968  28.0670  0.00  0.00     0.000 S
ATOM     51   O  IDS C   3      20.841   9.755  26.9100  0.00  0.00     0.000 OA
ATOM     52   O  IDS C   3      19.034   8.835  28.2180  0.00  0.00     0.000 OA
ATOM     53   O  IDS C   3      21.146   7.686  28.1120  0.00  0.00     0.000 OA
ENDBRANCH 42 49
BRANCH 45 54
ATOM     54   C  IDS C   3      20.212  10.314  33.9120  0.00  0.00     0.000 C
ATOM     55   O  IDS C   3      19.600   9.296  34.1060  0.00  0.00     0.000 OA
ATOM     56   O  IDS C   3      20.865  10.817  34.8050  0.00  0.00     0.000 OA
ENDBRANCH 45 54
BRANCH 41 57
ATOM     57  O4  SGN C   4      18.392  11.940  30.3860  0.00  0.00     0.000 O
BRANCH 57 61
ATOM     58  C1  SGN C   4      14.375  13.071  30.7200  0.00  0.00     0.000 C
ATOM     59  C2  SGN C   4      14.964  12.261  31.8860  0.00  0.00     0.000 C
ATOM     60  C3  SGN C   4      16.498  12.267  31.8450  0.00  0.00     0.000 C
ATOM     61  C4  SGN C   4      16.972  11.792  30.4820  0.00  0.00     0.000 C
ATOM     62  C5  SGN C   4      16.325  12.620  29.3720  0.00  0.00     0.000 C
ATOM     63  O5  SGN C   4      14.890  12.589  29.4870  0.00  0.00     0.000 O
BRANCH 59 66
ATOM     64   N  SGN C   4      14.324  12.808  33.0860  0.00  0.00     0.000 N
ATOM     66  HD  SGN C   4      14.864  12.405  32.5430  0.00  0.00     0.000 HD
ATOM     66   O  SGN C   4      13.037  12.638  35.1480  0.00  0.00     0.000 OA
ATOM     67   O  SGN C   4      12.392  11.305  33.1850  0.00  0.00     0.000 OA
ATOM     68   S  SGN C   4      13.555  11.828  34.0980  0.00  0.00     0.000 S
ATOM     69   O  SGN C   4      14.416  10.746  34.4130  0.00  0.00     0.000 OA
ENDBRANCH 59 66
BRANCH 62 70
ATOM     70   C  SGN C   4      16.673  12.084  28.0060  0.00  0.00     0.000 C
ATOM     71   S  SGN C   4      15.719  10.832  25.9830  0.00  0.00     0.000 S
ATOM     72   O  SGN C   4      16.351  11.798  25.1050  0.00  0.00     0.000 OA
ATOM     73   O  SGN C   4      16.568   9.701  26.2970  0.00  0.00     0.000 OA
ATOM     74   O  SGN C   4      14.385  10.463  25.5690  0.00  0.00     0.000 OA
ATOM     75   O  SGN C   4      15.492  11.613  27.3470  0.00  0.00     0.000 O
ENDBRANCH 62 70
ENDBRANCH 57 61
ENDBRANCH 41 57
ENDBRANCH 40 44
ENDBRANCH 20 40
ENDBRANCH 19 23
ENDBRANCH 1 19
TORSDOF 14
ENDMDL
MODEL 5
REMARK VINA RESULT:      -4.5      2.447     11.108
ROOT
ATOM      1  C1  IDS C   1      11.062   6.231  21.0640  0.00  0.00     0.000 C
ATOM      2  C2  IDS C   1      10.882   4.786  21.4910  0.00  0.00     0.000 C
ATOM      3  C3  IDS C   1       9.498   4.277  21.1080  0.00  0.00     0.000 C
ATOM      4  C4  IDS C   1       9.197   4.551  19.6350  0.00  0.00     0.000 C
ATOM      5  C5  IDS C   1       9.504   6.022  19.2920  0.00  0.00     0.000 C
ATOM      6  O5  IDS C   1      10.839   6.352  19.6600  0.00  0.00     0.000 O
ATOM      7   O  IDS C   1       8.516   4.896  21.9420  0.00  0.00     0.000 O
ATOM      9  HD  IDS C   1       8.043   4.728  21.2360  0.00  0.00     0.000 HD
ATOM      9   O  IDS C   1      10.015   3.692  18.8250  0.00  0.00     0.000 O
ATOM     11  HD  IDS C   1       9.542   3.524  18.1190  0.00  0.00     0.000 HD
ENDROOT
BRANCH 2 11
ATOM     11   O  IDS C   1      11.879   3.925  20.8160  0.00  0.00     0.000 O
ATOM     12   S  IDS C   1      12.672   2.803  21.6320  0.00  0.00     0.000 S
ATOM     13   O  IDS C   1      12.823   1.756  20.6460  0.00  0.00     0.000 OA
ATOM     14   O  IDS C   1      11.885   2.395  22.7710  0.00  0.00     0.000 OA
ATOM     15   O  IDS C   1      13.917   3.431  21.9980  0.00  0.00     0.000 OA
ENDBRANCH 2 11
BRANCH 5 16
ATOM     16   C  IDS C   1       9.339   6.341  17.8170  0.00  0.00     0.000 C
ATOM     17   O  IDS C   1       8.457   7.102  17.4780  0.00  0.00     0.000 OA
ATOM     18   O  IDS C   1      10.055   5.839  16.9950  0.00  0.00     0.000 OA
ENDBRANCH 5 16
BRANCH 1 19
ATOM     19  O4  SGN C   2      10.544   7.202  21.8230  0.00  0.00     0.000 O
BRANCH 19 23
ATOM     20  C1  SGN C   2      10.844  11.278  22.6730  0.00  0.00     0.000 C
ATOM     21  C2  SGN C   2       9.741  10.862  21.6920  0.00  0.00     0.000 C
ATOM     22  C3  SGN C   2       9.476   9.364  21.8200  0.00  0.00     0.000 C
ATOM     23  C4  SGN C   2      10.769   8.592  21.5840  0.00  0.00     0.000 C
ATOM     24  C5  SGN C   2      11.860   9.106  22.5280  0.00  0.00     0.000 C
ATOM     25  O5  SGN C   2      12.010  10.528  22.3720  0.00  0.00     0.000 O
ATOM     26   O  SGN C   2       8.464   8.958  20.9050  0.00  0.00     0.000 O
ATOM     28  HD  SGN C   2       7.799   8.808  20.3720  0.00  0.00     0.000 HD
BRANCH 21 30
ATOM     28   N  SGN C   2       8.686  11.831  22.0170  0.00  0.00     0.000 N
ATOM     30  HD  SGN C   2       7.885  11.670  21.7310  0.00  0.00     0.000 HD
ATOM     30   S  SGN C   2       8.291  12.999  20.9970  0.00  0.00     0.000 S
ATOM     31   O  SGN C   2       8.007  12.343  19.7650  0.00  0.00     0.000 OA
ATOM     32   O  SGN C   2       7.307  13.814  21.6070  0.00  0.00     0.000 OA
ATOM     33   O  SGN C   2       9.594  13.861  20.8820  0.00  0.00     0.000 OA
ENDBRANCH 21 30
BRANCH 24 34
ATOM     34   C  SGN C   2      13.220   8.502  22.2680  0.00  0.00     0.000 C
ATOM     35   O  SGN C   2      13.495   7.518  23.2800  0.00  0.00     0.000 O
ATOM     36   S  SGN C   2      15.022   7.101  23.4900  0.00  0.00     0.000 S
ATOM     37   O  SGN C   2      15.719   8.353  23.7080  0.00  0.00     0.000 OA
ATOM     38   O  SGN C   2      15.033   6.230  24.6410  0.00  0.00     0.000 OA
ATOM     39   O  SGN C   2      15.376   6.441  22.2580  0.00  0.00     0.000 OA
ENDBRANCH 24 34
BRANCH 20 40
ATOM     40  O4  IDS C   3      10.582  11.175  23.9740  0.00  0.00     0.000 O
BRANCH 40 44
ATOM     41  C1  IDS C   3       9.824  11.170  27.4170  0.00  0.00     0.000 C
ATOM     42  C2  IDS C   3       8.933  11.884  26.4040  0.00  0.00     0.000 C
ATOM     43  C3  IDS C   3       9.764  12.824  25.5350  0.00  0.00     0.000 C
ATOM     44  C4  IDS C   3      10.987  12.126  24.9610  0.00  0.00     0.000 C
ATOM     45  C5  IDS C   3      11.761  11.410  26.0880  0.00  0.00     0.000 C
ATOM     46  O5  IDS C   3      10.890  10.494  26.7550  0.00  0.00     0.000 O
ATOM     47   O  IDS C   3      10.167  13.952  26.3090  0.00  0.00     0.000 O
ATOM     49  HD  IDS C   3       9.578  13.493  25.8700  0.00  0.00     0.000 HD
BRANCH 42 49
ATOM     49   O  IDS C   3       8.264  10.895  25.5270  0.00  0.00     0.000 O
ATOM     50   S  IDS C   3       6.693  10.627  25.6870  0.00  0.00     0.000 S
ATOM     51   O  IDS C   3       6.093  11.830  25.1540  0.00  0.00     0.000 OA
ATOM     52   O  IDS C   3       6.379  10.422  27.0920  0.00  0.00     0.000 OA
ATOM     53   O  IDS C   3       6.407   9.453  24.8900  0.00  0.00     0.000 OA
ENDBRANCH 42 49
BRANCH 45 54
ATOM     54   C  IDS C   3      12.981  10.651  25.5920  0.00  0.00     0.000 C
ATOM     55   O  IDS C   3      13.892  11.252  25.0820  0.00  0.00     0.000 OA
ATOM     56   O  IDS C   3      13.027   9.440  25.6950  0.00  0.00     0.000 OA
ENDBRANCH 45 54
BRANCH 41 57
ATOM     57  O4  SGN C   4      10.061  12.036  28.4100  0.00  0.00     0.000 O
BRANCH 57 61
ATOM     58  C1  SGN C   4      12.277  12.126  31.9600  0.00  0.00     0.000 C
ATOM     59  C2  SGN C   4      13.038  12.441  30.6620  0.00  0.00     0.000 C
ATOM     60  C3  SGN C   4      12.070  12.778  29.5200  0.00  0.00     0.000 C
ATOM     61  C4  SGN C   4      11.055  11.658  29.3680  0.00  0.00     0.000 C
ATOM     62  C5  SGN C   4      10.360  11.380  30.6990  0.00  0.00     0.000 C
ATOM     63  O5  SGN C   4      11.328  11.096  31.7270  0.00  0.00     0.000 O
BRANCH 59 66
ATOM     64   N  SGN C   4      14.011  13.500  30.9500  0.00  0.00     0.000 N
ATOM     66  HD  SGN C   4      13.511  12.917  30.5500  0.00  0.00     0.000 HD
ATOM     66   O  SGN C   4      16.265  14.387  31.2060  0.00  0.00     0.000 OA
ATOM     67   O  SGN C   4      15.735  12.130  32.0220  0.00  0.00     0.000 OA
ATOM     68   S  SGN C   4      15.582  13.184  30.8720  0.00  0.00     0.000 S
ATOM     69   O  SGN C   4      15.849  12.554  29.6290  0.00  0.00     0.000 OA
ENDBRANCH 59 66
BRANCH 62 70
ATOM     70   C  SGN C   4       9.445  10.184  30.6080  0.00  0.00     0.000 C
ATOM     71   S  SGN C   4       7.108   9.330  31.2240  0.00  0.00     0.000 S
ATOM     72   O  SGN C   4       6.971   8.784  29.8880  0.00  0.00     0.000 OA
ATOM     73   O  SGN C   4       7.706   8.405  32.1640  0.00  0.00     0.000 OA
ATOM     74   O  SGN C   4       5.905   9.964  31.7150  0.00  0.00     0.000 OA
ATOM     75   O  SGN C   4       8.133  10.532  31.0660  0.00  0.00     0.000 O
ENDBRANCH 62 70
ENDBRANCH 57 61
ENDBRANCH 41 57
ENDBRANCH 40 44
ENDBRANCH 20 40
ENDBRANCH 19 23
ENDBRANCH 1 19
TORSDOF 14
ENDMDL
MODEL 6
REMARK VINA RESULT:      -4.4      5.389     11.781
ROOT
ATOM      1  C1  IDS C   1      11.841   9.918  23.1070  0.00  0.00     0.000 C
ATOM      2  C2  IDS C   1      11.897   8.607  22.3430  0.00  0.00     0.000 C
ATOM      3  C3  IDS C   1      11.368   7.461  23.1960  0.00  0.00     0.000 C
ATOM      4  C4  IDS C   1       9.999   7.798  23.7860  0.00  0.00     0.000 C
ATOM      5  C5  IDS C   1      10.034   9.188  24.4540  0.00  0.00     0.000 C
ATOM      6  O5  IDS C   1      10.504  10.170  23.5360  0.00  0.00     0.000 O
ATOM      7   O  IDS C   1      12.303   7.170  24.2360  0.00  0.00     0.000 O
ATOM      9  HD  IDS C   1      11.566   6.903  24.6040  0.00  0.00     0.000 HD
ATOM      9   O  IDS C   1       9.024   7.801  22.7320  0.00  0.00     0.000 O
ATOM     11  HD  IDS C   1       8.287   7.534  23.1000  0.00  0.00     0.000 HD
ENDROOT
BRANCH 2 11
ATOM     11   O  IDS C   1      11.057   8.688  21.1270  0.00  0.00     0.000 O
ATOM     12   S  IDS C   1      11.688   8.429  19.6820  0.00  0.00     0.000 S
ATOM     13   O  IDS C   1      10.597   7.789  18.9810  0.00  0.00     0.000 OA
ATOM     14   O  IDS C   1      12.849   7.581  19.8120  0.00  0.00     0.000 OA
ATOM     15   O  IDS C   1      12.000   9.745  19.1810  0.00  0.00     0.000 OA
ENDBRANCH 2 11
BRANCH 5 16
ATOM     16   C  IDS C   1       8.678   9.643  24.9630  0.00  0.00     0.000 C
ATOM     17   O  IDS C   1       7.750   8.863  24.9290  0.00  0.00     0.000 OA
ATOM     18   O  IDS C   1       8.519  10.757  25.3780  0.00  0.00     0.000 OA
ENDBRANCH 5 16
BRANCH 1 19
ATOM     19  O4  SGN C   2      12.802  10.193  23.9940  0.00  0.00     0.000 O
BRANCH 19 23
ATOM     20  C1  SGN C   2      15.262  13.177  25.5660  0.00  0.00     0.000 C
ATOM     21  C2  SGN C   2      13.784  13.223  25.9730  0.00  0.00     0.000 C
ATOM     22  C3  SGN C   2      13.130  11.872  25.6950  0.00  0.00     0.000 C
ATOM     23  C4  SGN C   2      13.307  11.509  24.2250  0.00  0.00     0.000 C
ATOM     24  C5  SGN C   2      14.790  11.563  23.8510  0.00  0.00     0.000 C
ATOM     25  O5  SGN C   2      15.332  12.853  24.1870  0.00  0.00     0.000 O
ATOM     26   O  SGN C   2      11.753  11.902  26.0520  0.00  0.00     0.000 O
ATOM     28  HD  SGN C   2      10.946  11.983  26.3570  0.00  0.00     0.000 HD
BRANCH 21 30
ATOM     28   N  SGN C   2      14.338  14.259  26.8540  0.00  0.00     0.000 N
ATOM     30  HD  SGN C   2      14.459  14.060  27.6880  0.00  0.00     0.000 HD
ATOM     30   S  SGN C   2      13.384  15.207  27.7220  0.00  0.00     0.000 S
ATOM     31   O  SGN C   2      12.541  14.323  28.4550  0.00  0.00     0.000 OA
ATOM     32   O  SGN C   2      14.189  16.148  28.4080  0.00  0.00     0.000 OA
ATOM     33   O  SGN C   2      12.562  16.001  26.6510  0.00  0.00     0.000 OA
ENDBRANCH 21 30
BRANCH 24 34
ATOM     34   C  SGN C   2      15.052  11.362  22.3770  0.00  0.00     0.000 C
ATOM     35   O  SGN C   2      15.498  10.012  22.1610  0.00  0.00     0.000 O
ATOM     36   S  SGN C   2      16.272   9.713  20.7970  0.00  0.00     0.000 S
ATOM     37   O  SGN C   2      17.350  10.681  20.7640  0.00  0.00     0.000 OA
ATOM     38   O  SGN C   2      16.730   8.348  20.9000  0.00  0.00     0.000 OA
ATOM     39   O  SGN C   2      15.271   9.915  19.7770  0.00  0.00     0.000 OA
ENDBRANCH 24 34
BRANCH 20 40
ATOM     40  O4  IDS C   3      16.062  12.361  26.2490  0.00  0.00     0.000 O
BRANCH 40 44
ATOM     41  C1  IDS C   3      18.307  11.155  28.6840  0.00  0.00     0.000 C
ATOM     42  C2  IDS C   3      17.770  12.582  28.7320  0.00  0.00     0.000 C
ATOM     43  C3  IDS C   3      17.984  13.275  27.3880  0.00  0.00     0.000 C
ATOM     44  C4  IDS C   3      17.490  12.423  26.2300  0.00  0.00     0.000 C
ATOM     45  C5  IDS C   3      18.074  10.999  26.3400  0.00  0.00     0.000 C
ATOM     46  O5  IDS C   3      17.719  10.434  27.6040  0.00  0.00     0.000 O
ATOM     47   O  IDS C   3      19.369  13.566  27.2220  0.00  0.00     0.000 O
ATOM     49  HD  IDS C   3      18.591  13.712  27.5740  0.00  0.00     0.000 HD
BRANCH 42 49
ATOM     49   O  IDS C   3      16.319  12.570  29.0330  0.00  0.00     0.000 O
ATOM     50   S  IDS C   3      15.805  13.042  30.4750  0.00  0.00     0.000 S
ATOM     51   O  IDS C   3      16.009  14.474  30.4500  0.00  0.00     0.000 OA
ATOM     52   O  IDS C   3      16.589  12.385  31.5070  0.00  0.00     0.000 OA
ATOM     53   O  IDS C   3      14.406  12.674  30.5380  0.00  0.00     0.000 OA
ENDBRANCH 42 49
BRANCH 45 54
ATOM     54   C  IDS C   3      17.598  10.066  25.2370  0.00  0.00     0.000 C
ATOM     55   O  IDS C   3      16.717   9.277  25.4630  0.00  0.00     0.000 OA
ATOM     56   O  IDS C   3      18.118  10.108  24.1400  0.00  0.00     0.000 OA
ENDBRANCH 45 54
BRANCH 41 57
ATOM     57  O4  SGN C   4      19.636  11.232  28.8250  0.00  0.00     0.000 O
BRANCH 57 61
ATOM     58  C1  SGN C   4      22.740   8.908  30.4050  0.00  0.00     0.000 C
ATOM     59  C2  SGN C   4      22.134   8.438  29.0720  0.00  0.00     0.000 C
ATOM     60  C3  SGN C   4      21.323   9.558  28.4060  0.00  0.00     0.000 C
ATOM     61  C4  SGN C   4      20.290  10.089  29.3860  0.00  0.00     0.000 C
ATOM     62  C5  SGN C   4      20.957  10.508  30.6940  0.00  0.00     0.000 C
ATOM     63  O5  SGN C   4      21.718   9.418  31.2480  0.00  0.00     0.000 O
BRANCH 59 66
ATOM     64   N  SGN C   4      23.139   7.919  28.1390  0.00  0.00     0.000 N
ATOM     66  HD  SGN C   4      22.392   8.134  28.5210  0.00  0.00     0.000 HD
ATOM     66   O  SGN C   4      24.417   6.143  27.0690  0.00  0.00     0.000 OA
ATOM     67   O  SGN C   4      23.936   6.029  29.4770  0.00  0.00     0.000 OA
ATOM     68   S  SGN C   4      23.394   6.338  28.0390  0.00  0.00     0.000 S
ATOM     69   O  SGN C   4      22.142   5.693  27.8690  0.00  0.00     0.000 OA
ENDBRANCH 59 66
BRANCH 62 70
ATOM     70   C  SGN C   4      19.939  10.912  31.7310  0.00  0.00     0.000 C
ATOM     71   S  SGN C   4      18.849  10.188  33.9350  0.00  0.00     0.000 S
ATOM     72   O  SGN C   4      19.017  11.535  34.4450  0.00  0.00     0.000 OA
ATOM     73   O  SGN C   4      17.595   9.991  33.2370  0.00  0.00     0.000 OA
ATOM     74   O  SGN C   4      19.141   9.161  34.9090  0.00  0.00     0.000 OA
ATOM     75   O  SGN C   4      19.996  10.019  32.8500  0.00  0.00     0.000 O
ENDBRANCH 62 70
ENDBRANCH 57 61
ENDBRANCH 41 57
ENDBRANCH 40 44
ENDBRANCH 20 40
ENDBRANCH 19 23
ENDBRANCH 1 19
TORSDOF 14
ENDMDL
MODEL 7
REMARK VINA RESULT:      -4.4      1.930      2.447
ROOT
ATOM      1  C1  IDS C   1       9.117  12.325  27.7950  0.00  0.00     0.000 C
ATOM      2  C2  IDS C   1       7.721  12.364  28.3910  0.00  0.00     0.000 C
ATOM      3  C3  IDS C   1       7.604  11.392  29.5580  0.00  0.00     0.000 C
ATOM      4  C4  IDS C   1       8.736  11.600  30.5650  0.00  0.00     0.000 C
ATOM      5  C5  IDS C   1      10.096  11.637  29.8390  0.00  0.00     0.000 C
ATOM      6  O5  IDS C   1      10.082  12.614  28.8050  0.00  0.00     0.000 O
ATOM      7   O  IDS C   1       7.615  10.051  29.0640  0.00  0.00     0.000 O
ATOM      9  HD  IDS C   1       7.933   9.931  29.8610  0.00  0.00     0.000 HD
ATOM      9   O  IDS C   1       8.527  12.845  31.2500  0.00  0.00     0.000 O
ATOM     11  HD  IDS C   1       8.845  12.724  32.0470  0.00  0.00     0.000 HD
ENDROOT
BRANCH 2 11
ATOM     11   O  IDS C   1       7.422  13.720  28.9040  0.00  0.00     0.000 O
ATOM     12   S  IDS C   1       6.986  14.889  27.9060  0.00  0.00     0.000 S
ATOM     13   O  IDS C   1       6.052  15.646  28.7100  0.00  0.00     0.000 OA
ATOM     14   O  IDS C   1       6.380  14.313  26.7300  0.00  0.00     0.000 OA
ATOM     15   O  IDS C   1       8.209  15.600  27.6240  0.00  0.00     0.000 OA
ENDBRANCH 2 11
BRANCH 5 16
ATOM     16   C  IDS C   1      11.259  11.956  30.7610  0.00  0.00     0.000 C
ATOM     17   O  IDS C   1      12.343  12.194  30.2730  0.00  0.00     0.000 OA
ATOM     18   O  IDS C   1      11.117  11.958  31.9530  0.00  0.00     0.000 OA
ENDBRANCH 5 16
BRANCH 1 19
ATOM     19  O4  SGN C   2       9.434  11.340  26.9490  0.00  0.00     0.000 O
BRANCH 19 23
ATOM     20  C1  SGN C   2      11.738  10.333  23.6170  0.00  0.00     0.000 C
ATOM     21  C2  SGN C   2      12.434  10.252  24.9810  0.00  0.00     0.000 C
ATOM     22  C3  SGN C   2      11.388  10.215  26.0920  0.00  0.00     0.000 C
ATOM     23  C4  SGN C   2      10.484  11.438  25.9850  0.00  0.00     0.000 C
ATOM     24  C5  SGN C   2       9.884  11.519  24.5790  0.00  0.00     0.000 C
ATOM     25  O5  SGN C   2      10.936  11.503  23.5980  0.00  0.00     0.000 O
ATOM     26   O  SGN C   2      12.018  10.156  27.3670  0.00  0.00     0.000 O
ATOM     28  HD  SGN C   2      12.475  10.051  28.0950  0.00  0.00     0.000 HD
BRANCH 21 30
ATOM     28   N  SGN C   2      13.375   9.126  25.0460  0.00  0.00     0.000 N
ATOM     30  HD  SGN C   2      13.833   9.022  25.7740  0.00  0.00     0.000 HD
ATOM     30   S  SGN C   2      14.921   9.315  24.6770  0.00  0.00     0.000 S
ATOM     31   O  SGN C   2      15.372  10.394  25.4900  0.00  0.00     0.000 OA
ATOM     32   O  SGN C   2      15.559   8.054  24.7570  0.00  0.00     0.000 OA
ATOM     33   O  SGN C   2      14.903   9.725  23.1650  0.00  0.00     0.000 OA
ENDBRANCH 21 30
BRANCH 24 34
ATOM     34   C  SGN C   2       9.089  12.779  24.3300  0.00  0.00     0.000 C
ATOM     35   O  SGN C   2       9.700  13.513  23.2540  0.00  0.00     0.000 O
ATOM     36   S  SGN C   2       9.333  15.062  23.1320  0.00  0.00     0.000 S
ATOM     37   O  SGN C   2       9.629  15.615  24.4390  0.00  0.00     0.000 OA
ATOM     38   O  SGN C   2      10.179  15.580  22.0850  0.00  0.00     0.000 OA
ATOM     39   O  SGN C   2       7.929  15.063  22.8010  0.00  0.00     0.000 OA
ENDBRANCH 24 34
BRANCH 20 40
ATOM     40  O4  IDS C   3      11.000   9.291  23.2390  0.00  0.00     0.000 O
BRANCH 40 44
ATOM     41  C1  IDS C   3      10.041   6.396  21.4730  0.00  0.00     0.000 C
ATOM     42  C2  IDS C   3      11.367   7.097  21.1950  0.00  0.00     0.000 C
ATOM     43  C3  IDS C   3      11.138   8.584  20.9350  0.00  0.00     0.000 C
ATOM     44  C4  IDS C   3      10.270   9.216  22.0120  0.00  0.00     0.000 C
ATOM     45  C5  IDS C   3       8.992   8.375  22.2180  0.00  0.00     0.000 C
ATOM     46  O5  IDS C   3       9.354   7.032  22.5470  0.00  0.00     0.000 O
ATOM     47   O  IDS C   3      10.527   8.753  19.6590  0.00  0.00     0.000 O
ATOM     49  HD  IDS C   3      11.207   8.584  20.1680  0.00  0.00     0.000 HD
BRANCH 42 49
ATOM     49   O  IDS C   3      12.273   6.953  22.3580  0.00  0.00     0.000 O
ATOM     50   S  IDS C   3      13.577   6.030  22.2390  0.00  0.00     0.000 S
ATOM     51   O  IDS C   3      14.451   6.796  21.3780  0.00  0.00     0.000 OA
ATOM     52   O  IDS C   3      13.210   4.747  21.6620  0.00  0.00     0.000 OA
ATOM     53   O  IDS C   3      14.092   5.893  23.5850  0.00  0.00     0.000 OA
ENDBRANCH 42 49
BRANCH 45 54
ATOM     54   C  IDS C   3       8.084   8.917  23.3100  0.00  0.00     0.000 C
ATOM     55   O  IDS C   3       7.323   9.817  23.0620  0.00  0.00     0.000 OA
ATOM     56   O  IDS C   3       8.141   8.454  24.4330  0.00  0.00     0.000 OA
ENDBRANCH 45 54
BRANCH 41 57
ATOM     57  O4  SGN C   4       9.447   6.197  20.2890  0.00  0.00     0.000 O
BRANCH 57 61
ATOM     58  C1  SGN C   4       6.207   3.847  19.0610  0.00  0.00     0.000 C
ATOM     59  C2  SGN C   4       6.308   4.154  20.5640  0.00  0.00     0.000 C
ATOM     60  C3  SGN C   4       7.262   5.328  20.8270  0.00  0.00     0.000 C
ATOM     61  C4  SGN C   4       8.606   5.045  20.1780  0.00  0.00     0.000 C
ATOM     62  C5  SGN C   4       8.428   4.720  18.6950  0.00  0.00     0.000 C
ATOM     63  O5  SGN C   4       7.504   3.628  18.5230  0.00  0.00     0.000 O
BRANCH 59 66
ATOM     64   N  SGN C   4       4.910   4.277  20.9870  0.00  0.00     0.000 N
ATOM     66  HD  SGN C   4       5.771   4.347  20.9340  0.00  0.00     0.000 HD
ATOM     66   O  SGN C   4       3.012   3.782  22.4330  0.00  0.00     0.000 OA
ATOM     67   O  SGN C   4       4.575   1.992  21.8030  0.00  0.00     0.000 OA
ATOM     68   S  SGN C   4       4.394   3.475  22.2780  0.00  0.00     0.000 S
ATOM     69   O  SGN C   4       5.288   3.729  23.3490  0.00  0.00     0.000 OA
ENDBRANCH 59 66
BRANCH 62 70
ATOM     70   C  SGN C   4       9.730   4.304  18.0580  0.00  0.00     0.000 C
ATOM     71   S  SGN C   4      11.901   3.007  18.4740  0.00  0.00     0.000 S
ATOM     72   O  SGN C   4      11.758   2.379  17.1750  0.00  0.00     0.000 OA
ATOM     73   O  SGN C   4      12.640   4.252  18.4300  0.00  0.00     0.000 OA
ATOM     74   O  SGN C   4      12.347   2.101  19.5070  0.00  0.00     0.000 OA
ATOM     75   O  SGN C   4      10.421   3.381  18.9080  0.00  0.00     0.000 O
ENDBRANCH 62 70
ENDBRANCH 57 61
ENDBRANCH 41 57
ENDBRANCH 40 44
ENDBRANCH 20 40
ENDBRANCH 19 23
ENDBRANCH 1 19
TORSDOF 14
ENDMDL
MODEL 8
REMARK VINA RESULT:      -4.0      6.108     11.193
ROOT
ATOM      1  C1  IDS C   1      11.897   6.115  21.9980  0.00  0.00     0.000 C
ATOM      2  C2  IDS C   1      10.752   6.716  21.2020  0.00  0.00     0.000 C
ATOM      3  C3  IDS C   1      10.443   5.867  19.9750  0.00  0.00     0.000 C
ATOM      4  C4  IDS C   1      10.257   4.398  20.3520  0.00  0.00     0.000 C
ATOM      5  C5  IDS C   1      11.428   3.921  21.2350  0.00  0.00     0.000 C
ATOM      6  O5  IDS C   1      11.579   4.774  22.3650  0.00  0.00     0.000 O
ATOM      7   O  IDS C   1      11.496   6.009  19.0200  0.00  0.00     0.000 O
ATOM      9  HD  IDS C   1      11.201   5.221  18.8160  0.00  0.00     0.000 HD
ATOM      9   O  IDS C   1       9.025   4.254  21.0760  0.00  0.00     0.000 O
ATOM     11  HD  IDS C   1       8.730   3.466  20.8730  0.00  0.00     0.000 HD
ENDROOT
BRANCH 2 11
ATOM     11   O  IDS C   1       9.528   6.770  22.0310  0.00  0.00     0.000 O
ATOM     12   S  IDS C   1       9.130   8.109  22.8090  0.00  0.00     0.000 S
ATOM     13   O  IDS C   1       7.686   8.081  22.7490  0.00  0.00     0.000 OA
ATOM     14   O  IDS C   1       9.702   9.245  22.1280  0.00  0.00     0.000 OA
ATOM     15   O  IDS C   1       9.653   7.923  24.1400  0.00  0.00     0.000 OA
ENDBRANCH 2 11
BRANCH 5 16
ATOM     16   C  IDS C   1      11.256   2.502  21.7450  0.00  0.00     0.000 C
ATOM     17   O  IDS C   1      11.763   2.196  22.8040  0.00  0.00     0.000 OA
ATOM     18   O  IDS C   1      10.643   1.690  21.1090  0.00  0.00     0.000 OA
ENDBRANCH 5 16
BRANCH 1 19
ATOM     19  O4  SGN C   2      13.152   6.326  21.5900  0.00  0.00     0.000 O
BRANCH 19 23
ATOM     20  C1  SGN C   2      17.161   6.369  22.7520  0.00  0.00     0.000 C
ATOM     21  C2  SGN C   2      16.540   4.993  22.4880  0.00  0.00     0.000 C
ATOM     22  C3  SGN C   2      15.258   5.153  21.6740  0.00  0.00     0.000 C
ATOM     23  C4  SGN C   2      14.298   6.082  22.4080  0.00  0.00     0.000 C
ATOM     24  C5  SGN C   2      14.996   7.407  22.7230  0.00  0.00     0.000 C
ATOM     25  O5  SGN C   2      16.212   7.158  23.4500  0.00  0.00     0.000 O
ATOM     26   O  SGN C   2      14.659   3.885  21.4340  0.00  0.00     0.000 O
ATOM     28  HD  SGN C   2      14.398   3.074  21.2740  0.00  0.00     0.000 HD
BRANCH 21 30
ATOM     28   N  SGN C   2      17.955   4.601  22.4770  0.00  0.00     0.000 N
ATOM     30  HD  SGN C   2      18.283   4.286  21.7400  0.00  0.00     0.000 HD
ATOM     30   S  SGN C   2      18.400   3.089  22.7520  0.00  0.00     0.000 S
ATOM     31   O  SGN C   2      17.655   2.303  21.8280  0.00  0.00     0.000 OA
ATOM     32   O  SGN C   2      19.815   3.030  22.7530  0.00  0.00     0.000 OA
ATOM     33   O  SGN C   2      17.930   2.817  24.2220  0.00  0.00     0.000 OA
ENDBRANCH 21 30
BRANCH 24 34
ATOM     34   C  SGN C   2      14.171   8.339  23.5790  0.00  0.00     0.000 C
ATOM     35   O  SGN C   2      13.651   9.396  22.7530  0.00  0.00     0.000 O
ATOM     36   S  SGN C   2      13.163  10.723  23.4950  0.00  0.00     0.000 S
ATOM     37   O  SGN C   2      14.297  11.133  24.3000  0.00  0.00     0.000 OA
ATOM     38   O  SGN C   2      12.836  11.657  22.4450  0.00  0.00     0.000 OA
ATOM     39   O  SGN C   2      12.023  10.292  24.2660  0.00  0.00     0.000 OA
ENDBRANCH 24 34
BRANCH 20 40
ATOM     40  O4  IDS C   3      17.610   7.053  21.7020  0.00  0.00     0.000 O
BRANCH 40 44
ATOM     41  C1  IDS C   3      19.233   8.525  18.9400  0.00  0.00     0.000 C
ATOM     42  C2  IDS C   3      19.628   7.144  19.4540  0.00  0.00     0.000 C
ATOM     43  C3  IDS C   3      19.902   7.194  20.9560  0.00  0.00     0.000 C
ATOM     44  C4  IDS C   3      18.775   7.882  21.7100  0.00  0.00     0.000 C
ATOM     45  C5  IDS C   3      18.452   9.239  21.0510  0.00  0.00     0.000 C
ATOM     46  O5  IDS C   3      18.123   9.034  19.6750  0.00  0.00     0.000 O
ATOM     47   O  IDS C   3      21.131   7.877  21.1900  0.00  0.00     0.000 O
ATOM     49  HD  IDS C   3      20.672   7.187  20.9380  0.00  0.00     0.000 HD
BRANCH 42 49
ATOM     49   O  IDS C   3      18.536   6.175  19.2040  0.00  0.00     0.000 O
ATOM     50   S  IDS C   3      18.871   4.754  18.5460  0.00  0.00     0.000 S
ATOM     51   O  IDS C   3      19.548   4.045  19.6100  0.00  0.00     0.000 OA
ATOM     52   O  IDS C   3      19.715   4.948  17.3790  0.00  0.00     0.000 OA
ATOM     53   O  IDS C   3      17.594   4.164  18.2010  0.00  0.00     0.000 OA
ENDBRANCH 42 49
BRANCH 45 54
ATOM     54   C  IDS C   3      17.306   9.978  21.7220  0.00  0.00     0.000 C
ATOM     55   O  IDS C   3      16.343  10.301  21.0750  0.00  0.00     0.000 OA
ATOM     56   O  IDS C   3      17.371  10.254  22.9040  0.00  0.00     0.000 OA
ENDBRANCH 45 54
BRANCH 41 57
ATOM     57  O4  SGN C   4      20.362   9.232  18.8090  0.00  0.00     0.000 O
BRANCH 57 61
ATOM     58  C1  SGN C   4      21.629  12.761  16.9460  0.00  0.00     0.000 C
ATOM     59  C2  SGN C   4      20.429  12.875  17.9000  0.00  0.00     0.000 C
ATOM     60  C3  SGN C   4      20.326  11.645  18.8120  0.00  0.00     0.000 C
ATOM     61  C4  SGN C   4      20.304  10.384  17.9630  0.00  0.00     0.000 C
ATOM     62  C5  SGN C   4      21.507  10.352  17.0210  0.00  0.00     0.000 C
ATOM     63  O5  SGN C   4      21.553  11.545  16.2160  0.00  0.00     0.000 O
BRANCH 59 66
ATOM     64   N  SGN C   4      20.595  14.189  18.5300  0.00  0.00     0.000 N
ATOM     66  HD  SGN C   4      20.364  13.372  18.3600  0.00  0.00     0.000 HD
ATOM     66   O  SGN C   4      19.832  16.401  19.2060  0.00  0.00     0.000 OA
ATOM     67   O  SGN C   4      19.196  15.502  17.0080  0.00  0.00     0.000 OA
ATOM     68   S  SGN C   4      19.374  15.229  18.5420  0.00  0.00     0.000 S
ATOM     69   O  SGN C   4      18.221  14.560  19.0280  0.00  0.00     0.000 OA
ENDBRANCH 59 66
BRANCH 62 70
ATOM     70   C  SGN C   4      21.439   9.180  16.0750  0.00  0.00     0.000 C
ATOM     71   S  SGN C   4      22.077   8.398  13.7180  0.00  0.00     0.000 S
ATOM     72   O  SGN C   4      22.557   7.150  14.2780  0.00  0.00     0.000 OA
ATOM     73   O  SGN C   4      20.673   8.365  13.3620  0.00  0.00     0.000 OA
ATOM     74   O  SGN C   4      22.929   8.932  12.6800  0.00  0.00     0.000 OA
ATOM     75   O  SGN C   4      22.212   9.450  14.9000  0.00  0.00     0.000 O
ENDBRANCH 62 70
ENDBRANCH 57 61
ENDBRANCH 41 57
ENDBRANCH 40 44
ENDBRANCH 20 40
ENDBRANCH 19 23
ENDBRANCH 1 19
TORSDOF 14
ENDMDL
MODEL 9
REMARK VINA RESULT:      -3.9      8.696     13.440
ROOT
ATOM      1  C1  IDS C   1      20.981   6.877  35.4790  0.00  0.00     0.000 C
ATOM      2  C2  IDS C   1      20.169   5.796  36.1710  0.00  0.00     0.000 C
ATOM      3  C3  IDS C   1      19.808   4.683  35.1950  0.00  0.00     0.000 C
ATOM      4  C4  IDS C   1      21.044   4.177  34.4520  0.00  0.00     0.000 C
ATOM      5  C5  IDS C   1      21.841   5.363  33.8710  0.00  0.00     0.000 C
ATOM      6  O5  IDS C   1      22.150   6.304  34.8940  0.00  0.00     0.000 O
ATOM      7   O  IDS C   1      18.829   5.160  34.2700  0.00  0.00     0.000 O
ATOM      9  HD  IDS C   1      19.211   4.545  33.7950  0.00  0.00     0.000 HD
ATOM      9   O  IDS C   1      21.875   3.450  35.3700  0.00  0.00     0.000 O
ATOM     11  HD  IDS C   1      22.257   2.834  34.8950  0.00  0.00     0.000 HD
ENDROOT
BRANCH 2 11
ATOM     11   O  IDS C   1      20.955   5.192  37.2700  0.00  0.00     0.000 O
ATOM     12   S  IDS C   1      21.085   5.933  38.6800  0.00  0.00     0.000 S
ATOM     13   O  IDS C   1      21.121   4.824  39.6070  0.00  0.00     0.000 OA
ATOM     14   O  IDS C   1      19.942   6.793  38.8750  0.00  0.00     0.000 OA
ATOM     15   O  IDS C   1      22.331   6.654  38.5980  0.00  0.00     0.000 OA
ENDBRANCH 2 11
BRANCH 5 16
ATOM     16   C  IDS C   1      23.146   4.947  33.2170  0.00  0.00     0.000 C
ATOM     17   O  IDS C   1      23.999   5.788  33.0290  0.00  0.00     0.000 OA
ATOM     18   O  IDS C   1      23.327   3.811  32.8750  0.00  0.00     0.000 OA
ENDBRANCH 5 16
BRANCH 1 19
ATOM     19  O4  SGN C   2      20.346   7.791  34.7390  0.00  0.00     0.000 O
BRANCH 19 23
ATOM     20  C1  SGN C   2      20.188  11.828  33.6850  0.00  0.00     0.000 C
ATOM     21  C2  SGN C   2      21.551  11.138  33.5500  0.00  0.00     0.000 C
ATOM     22  C3  SGN C   2      21.363   9.623  33.5430  0.00  0.00     0.000 C
ATOM     23  C4  SGN C   2      20.627   9.191  34.8060  0.00  0.00     0.000 C
ATOM     24  C5  SGN C   2      19.317   9.972  34.9370  0.00  0.00     0.000 C
ATOM     25  O5  SGN C   2      19.585  11.385  34.8900  0.00  0.00     0.000 O
ATOM     26   O  SGN C   2      22.620   8.965  33.4340  0.00  0.00     0.000 O
ATOM     28  HD  SGN C   2      23.414   8.647  33.2970  0.00  0.00     0.000 HD
BRANCH 21 30
ATOM     28   N  SGN C   2      22.387  12.336  33.6980  0.00  0.00     0.000 N
ATOM     30  HD  SGN C   2      22.070  13.090  33.4120  0.00  0.00     0.000 HD
ATOM     30   S  SGN C   2      23.332  12.839  32.5090  0.00  0.00     0.000 S
ATOM     31   O  SGN C   2      22.479  12.960  31.3750  0.00  0.00     0.000 OA
ATOM     32   O  SGN C   2      24.067  13.961  32.9640  0.00  0.00     0.000 OA
ATOM     33   O  SGN C   2      24.355  11.669  32.3160  0.00  0.00     0.000 OA
ENDBRANCH 21 30
BRANCH 24 34
ATOM     34   C  SGN C   2      18.588   9.719  36.2360  0.00  0.00     0.000 C
ATOM     35   O  SGN C   2      17.449   8.879  35.9760  0.00  0.00     0.000 O
ATOM     36   S  SGN C   2      16.290   8.869  37.0740  0.00  0.00     0.000 S
ATOM     37   O  SGN C   2      15.940  10.264  37.2540  0.00  0.00     0.000 OA
ATOM     38   O  SGN C   2      15.224   8.078  36.5070  0.00  0.00     0.000 OA
ATOM     39   O  SGN C   2      16.910   8.267  38.2290  0.00  0.00     0.000 OA
ENDBRANCH 24 34
BRANCH 20 40
ATOM     40  O4  IDS C   3      19.323  11.683  32.6840  0.00  0.00     0.000 O
BRANCH 40 44
ATOM     41  C1  IDS C   3      17.418  11.707  29.7190  0.00  0.00     0.000 C
ATOM     42  C2  IDS C   3      18.833  12.275  29.7620  0.00  0.00     0.000 C
ATOM     43  C3  IDS C   3      18.968  13.277  30.9060  0.00  0.00     0.000 C
ATOM     44  C4  IDS C   3      18.445  12.709  32.2160  0.00  0.00     0.000 C
ATOM     45  C5  IDS C   3      17.030  12.128  32.0090  0.00  0.00     0.000 C
ATOM     46  O5  IDS C   3      17.067  11.139  30.9780  0.00  0.00     0.000 O
ATOM     47   O  IDS C   3      18.261  14.470  30.5770  0.00  0.00     0.000 O
ATOM     49  HD  IDS C   3      18.934  13.930  30.4990  0.00  0.00     0.000 HD
BRANCH 42 49
ATOM     49   O  IDS C   3      19.814  11.184  29.9690  0.00  0.00     0.000 O
ATOM     50   S  IDS C   3      20.640  10.613  28.7210  0.00  0.00     0.000 S
ATOM     51   O  IDS C   3      21.565  11.681  28.4160  0.00  0.00     0.000 OA
ATOM     52   O  IDS C   3      19.727  10.335  27.6240  0.00  0.00     0.000 OA
ATOM     53   O  IDS C   3      21.299   9.415  29.1950  0.00  0.00     0.000 OA
ENDBRANCH 42 49
BRANCH 45 54
ATOM     54   C  IDS C   3      16.446  11.502  33.2660  0.00  0.00     0.000 C
ATOM     55   O  IDS C   3      16.354  12.158  34.2710  0.00  0.00     0.000 OA
ATOM     56   O  IDS C   3      16.091  10.340  33.2560  0.00  0.00     0.000 OA
ENDBRANCH 45 54
BRANCH 41 57
ATOM     57  O4  SGN C   4      16.643  12.628  29.1330  0.00  0.00     0.000 O
BRANCH 57 61
ATOM     58  C1  SGN C   4      12.678  13.006  27.8430  0.00  0.00     0.000 C
ATOM     59  C2  SGN C   4      12.893  12.645  29.3220  0.00  0.00     0.000 C
ATOM     60  C3  SGN C   4      14.334  12.937  29.7610  0.00  0.00     0.000 C
ATOM     61  C4  SGN C   4      15.302  12.237  28.8220  0.00  0.00     0.000 C
ATOM     62  C5  SGN C   4      15.013  12.618  27.3710  0.00  0.00     0.000 C
ATOM     63  O5  SGN C   4      13.640  12.340  27.0380  0.00  0.00     0.000 O
BRANCH 59 66
ATOM     64   N  SGN C   4      11.855  13.346  30.0840  0.00  0.00     0.000 N
ATOM     66  HD  SGN C   4      12.560  12.897  29.8590  0.00  0.00     0.000 HD
ATOM     66   O  SGN C   4       9.911  13.447  31.5490  0.00  0.00     0.000 OA
ATOM     67   O  SGN C   4      10.036  11.731  29.7930  0.00  0.00     0.000 OA
ATOM     68   S  SGN C   4      10.783  12.506  30.9330  0.00  0.00     0.000 S
ATOM     69   O  SGN C   4      11.484  11.575  31.7410  0.00  0.00     0.000 OA
ENDBRANCH 59 66
BRANCH 62 70
ATOM     70   C  SGN C   4      15.871  11.834  26.4100  0.00  0.00     0.000 C
ATOM     71   S  SGN C   4      16.043   9.608  25.1500  0.00  0.00     0.000 S
ATOM     72   O  SGN C   4      16.409  10.333  23.9490  0.00  0.00     0.000 OA
ATOM     73   O  SGN C   4      17.180   9.245  25.9710  0.00  0.00     0.000 OA
ATOM     74   O  SGN C   4      15.126   8.518  24.9100  0.00  0.00     0.000 OA
ATOM     75   O  SGN C   4      15.190  10.642  26.0020  0.00  0.00     0.000 O
ENDBRANCH 62 70
ENDBRANCH 57 61
ENDBRANCH 41 57
ENDBRANCH 40 44
ENDBRANCH 20 40
ENDBRANCH 19 23
ENDBRANCH 1 19
TORSDOF 14
ENDMDL
MODEL 10
REMARK VINA RESULT:      -3.9      3.004     11.497
ROOT
ATOM      1  C1  IDS C   1      12.846   8.702  22.4590  0.00  0.00     0.000 C
ATOM      2  C2  IDS C   1      14.300   8.264  22.4480  0.00  0.00     0.000 C
ATOM      3  C3  IDS C   1      14.442   6.848  22.9930  0.00  0.00     0.000 C
ATOM      4  C4  IDS C   1      13.480   5.888  22.2920  0.00  0.00     0.000 C
ATOM      5  C5  IDS C   1      12.055   6.476  22.2800  0.00  0.00     0.000 C
ATOM      6  O5  IDS C   1      12.058   7.780  21.7080  0.00  0.00     0.000 O
ATOM      7   O  IDS C   1      14.205   6.854  24.4020  0.00  0.00     0.000 O
ATOM      9  HD  IDS C   1      13.977   6.042  24.2040  0.00  0.00     0.000 HD
ATOM      9   O  IDS C   1      13.924   5.686  20.9420  0.00  0.00     0.000 O
ATOM     11  HD  IDS C   1      13.696   4.874  20.7440  0.00  0.00     0.000 HD
ENDROOT
BRANCH 2 11
ATOM     11   O  IDS C   1      14.825   8.269  21.0650  0.00  0.00     0.000 O
ATOM     12   S  IDS C   1      16.072   9.187  20.6700  0.00  0.00     0.000 S
ATOM     13   O  IDS C   1      16.750   8.376  19.6840  0.00  0.00     0.000 OA
ATOM     14   O  IDS C   1      16.874   9.435  21.8440  0.00  0.00     0.000 OA
ATOM     15   O  IDS C   1      15.482  10.383  20.1220  0.00  0.00     0.000 OA
ENDBRANCH 2 11
BRANCH 5 16
ATOM     16   C  IDS C   1      11.065   5.631  21.4990  0.00  0.00     0.000 C
ATOM     17   O  IDS C   1       9.939   6.051  21.3360  0.00  0.00     0.000 OA
ATOM     18   O  IDS C   1      11.381   4.559  21.0620  0.00  0.00     0.000 OA
ENDBRANCH 5 16
BRANCH 1 19
ATOM     19  O4  SGN C   2      12.307   9.135  23.6020  0.00  0.00     0.000 O
BRANCH 19 23
ATOM     20  C1  SGN C   2       9.604  11.807  25.3280  0.00  0.00     0.000 C
ATOM     21  C2  SGN C   2       9.005  10.678  24.4810  0.00  0.00     0.000 C
ATOM     22  C3  SGN C   2      10.037   9.570  24.2940  0.00  0.00     0.000 C
ATOM     23  C4  SGN C   2      11.300  10.146  23.6650  0.00  0.00     0.000 C
ATOM     24  C5  SGN C   2      11.807  11.324  24.5020  0.00  0.00     0.000 C
ATOM     25  O5  SGN C   2      10.757  12.295  24.6630  0.00  0.00     0.000 O
ATOM     26   O  SGN C   2       9.503   8.520  23.4960  0.00  0.00     0.000 O
ATOM     28  HD  SGN C   2       9.081   7.898  23.0650  0.00  0.00     0.000 HD
BRANCH 21 30
ATOM     28   N  SGN C   2       7.729  10.923  23.7970  0.00  0.00     0.000 N
ATOM     30  HD  SGN C   2       7.385  11.716  23.8510  0.00  0.00     0.000 HD
ATOM     30   S  SGN C   2       6.334  10.795  24.5700  0.00  0.00     0.000 S
ATOM     31   O  SGN C   2       6.459  11.635  25.7130  0.00  0.00     0.000 OA
ATOM     32   O  SGN C   2       5.285  11.011  23.6440  0.00  0.00     0.000 OA
ATOM     33   O  SGN C   2       6.270   9.287  24.9910  0.00  0.00     0.000 OA
ENDBRANCH 21 30
BRANCH 24 34
ATOM     34   C  SGN C   2      12.972  12.055  23.8770  0.00  0.00     0.000 C
ATOM     35   O  SGN C   2      14.198  11.450  24.3250  0.00  0.00     0.000 O
ATOM     36   S  SGN C   2      15.529  12.320  24.1870  0.00  0.00     0.000 S
ATOM     37   O  SGN C   2      15.227  13.566  24.8650  0.00  0.00     0.000 OA
ATOM     38   O  SGN C   2      16.565  11.552  24.8340  0.00  0.00     0.000 OA
ATOM     39   O  SGN C   2      15.709  12.458  22.7630  0.00  0.00     0.000 OA
ENDBRANCH 24 34
BRANCH 20 40
ATOM     40  O4  IDS C   3       9.913  11.530  26.5930  0.00  0.00     0.000 O
BRANCH 40 44
ATOM     41  C1  IDS C   3       9.921  11.323  30.1120  0.00  0.00     0.000 C
ATOM     42  C2  IDS C   3       8.778  11.992  29.3550  0.00  0.00     0.000 C
ATOM     43  C3  IDS C   3       9.323  13.037  28.3850  0.00  0.00     0.000 C
ATOM     44  C4  IDS C   3      10.444  12.475  27.5250  0.00  0.00     0.000 C
ATOM     45  C5  IDS C   3      11.499  11.789  28.4180  0.00  0.00     0.000 C
ATOM     46  O5  IDS C   3      10.870  10.772  29.2020  0.00  0.00     0.000 O
ATOM     47   O  IDS C   3       9.792  14.165  29.1190  0.00  0.00     0.000 O
ATOM     49  HD  IDS C   3       9.161  13.672  28.7890  0.00  0.00     0.000 HD
BRANCH 42 49
ATOM     49   O  IDS C   3       8.017  10.981  28.5850  0.00  0.00     0.000 O
ATOM     50   S  IDS C   3       6.618  10.441  29.1490  0.00  0.00     0.000 S
ATOM     51   O  IDS C   3       5.728  11.567  28.9680  0.00  0.00     0.000 OA
ATOM     52   O  IDS C   3       6.771  10.071  30.5470  0.00  0.00     0.000 OA
ATOM     53   O  IDS C   3       6.267   9.306  28.3220  0.00  0.00     0.000 OA
ENDBRANCH 42 49
BRANCH 45 54
ATOM     54   C  IDS C   3      12.640  11.163  27.6320  0.00  0.00     0.000 C
ATOM     55   O  IDS C   3      12.502  10.070  27.1480  0.00  0.00     0.000 OA
ATOM     56   O  IDS C   3      13.691  11.761  27.5090  0.00  0.00     0.000 OA
ENDBRANCH 45 54
BRANCH 41 57
ATOM     57  O4  SGN C   4      10.297  12.167  31.0800  0.00  0.00     0.000 O
BRANCH 57 61
ATOM     58  C1  SGN C   4      12.891  12.198  34.3660  0.00  0.00     0.000 C
ATOM     59  C2  SGN C   4      13.540  12.125  32.9740  0.00  0.00     0.000 C
ATOM     60  C3  SGN C   4      12.545  12.530  31.8780  0.00  0.00     0.000 C
ATOM     61  C4  SGN C   4      11.285  11.691  32.0000  0.00  0.00     0.000 C
ATOM     62  C5  SGN C   4      10.712  11.787  33.4140  0.00  0.00     0.000 C
ATOM     63  O5  SGN C   4      11.705  11.417  34.3890  0.00  0.00     0.000 O
BRANCH 59 66
ATOM     64   N  SGN C   4      14.783  12.875  33.1770  0.00  0.00     0.000 N
ATOM     66  HD  SGN C   4      14.070  12.526  32.8310  0.00  0.00     0.000 HD
ATOM     66   O  SGN C   4      17.175  13.255  32.9110  0.00  0.00     0.000 OA
ATOM     67   O  SGN C   4      16.331  10.982  33.3190  0.00  0.00     0.000 OA
ATOM     68   S  SGN C   4      16.154  12.333  32.5430  0.00  0.00     0.000 S
ATOM     69   O  SGN C   4      15.932  12.051  31.1710  0.00  0.00     0.000 OA
ENDBRANCH 59 66
BRANCH 62 70
ATOM     70   C  SGN C   4       9.538  10.860  33.6000  0.00  0.00     0.000 C
ATOM     71   S  SGN C   4       8.878   8.508  34.3780  0.00  0.00     0.000 S
ATOM     72   O  SGN C   4       7.777   9.081  35.1280  0.00  0.00     0.000 OA
ATOM     73   O  SGN C   4       8.527   8.168  33.0140  0.00  0.00     0.000 OA
ATOM     74   O  SGN C   4       9.569   7.453  35.0830  0.00  0.00     0.000 OA
ATOM     75   O  SGN C   4       9.954   9.672  34.2860  0.00  0.00     0.000 O
ENDBRANCH 62 70
ENDBRANCH 57 61
ENDBRANCH 41 57
ENDBRANCH 40 44
ENDBRANCH 20 40
ENDBRANCH 19 23
ENDBRANCH 1 19
TORSDOF 14
ENDMDL
MODEL 11
REMARK VINA RESULT:      -3.9      7.148     11.704
ROOT
ATOM      1  C1  IDS C   1      12.700   6.239  21.8080  0.00  0.00     0.000 C
ATOM      2  C2  IDS C   1      11.667   7.060  21.0570  0.00  0.00     0.000 C
ATOM      3  C3  IDS C   1      11.095   6.270  19.8860  0.00  0.00     0.000 C
ATOM      4  C4  IDS C   1      10.612   4.891  20.3340  0.00  0.00     0.000 C
ATOM      5  C5  IDS C   1      11.704   4.187  21.1650  0.00  0.00     0.000 C
ATOM      6  O5  IDS C   1      12.116   5.014  22.2490  0.00  0.00     0.000 O
ATOM      7   O  IDS C   1      12.088   6.146  18.8660  0.00  0.00     0.000 O
ATOM      9  HD  IDS C   1      11.611   5.439  18.7130  0.00  0.00     0.000 HD
ATOM      9   O  IDS C   1       9.431   5.048  21.1350  0.00  0.00     0.000 O
ATOM     11  HD  IDS C   1       8.954   4.341  20.9820  0.00  0.00     0.000 HD
ENDROOT
BRANCH 2 11
ATOM     11   O  IDS C   1      10.544   7.411  21.9540  0.00  0.00     0.000 O
ATOM     12   S  IDS C   1      10.700   8.577  23.0360  0.00  0.00     0.000 S
ATOM     13   O  IDS C   1       9.371   9.149  23.0630  0.00  0.00     0.000 OA
ATOM     14   O  IDS C   1      11.706   9.511  22.5910  0.00  0.00     0.000 OA
ATOM     15   O  IDS C   1      11.056   7.896  24.2550  0.00  0.00     0.000 OA
ENDBRANCH 2 11
BRANCH 5 16
ATOM     16   C  IDS C   1      11.254   2.858  21.7430  0.00  0.00     0.000 C
ATOM     17   O  IDS C   1      11.827   2.420  22.7190  0.00  0.00     0.000 OA
ATOM     18   O  IDS C   1      10.359   2.239  21.2380  0.00  0.00     0.000 OA
ENDBRANCH 5 16
BRANCH 1 19
ATOM     19  O4  SGN C   2      13.940   6.151  21.3180  0.00  0.00     0.000 O
BRANCH 19 23
ATOM     20  C1  SGN C   2      17.950   5.437  22.2350  0.00  0.00     0.000 C
ATOM     21  C2  SGN C   2      17.001   4.237  22.3340  0.00  0.00     0.000 C
ATOM     22  C3  SGN C   2      15.712   4.534  21.5700  0.00  0.00     0.000 C
ATOM     23  C4  SGN C   2      15.078   5.809  22.1120  0.00  0.00     0.000 C
ATOM     24  C5  SGN C   2      16.095   6.953  22.0720  0.00  0.00     0.000 C
ATOM     25  O5  SGN C   2      17.290   6.569  22.7750  0.00  0.00     0.000 O
ATOM     26   O  SGN C   2      14.812   3.436  21.6650  0.00  0.00     0.000 O
ATOM     28  HD  SGN C   2      14.355   2.702  21.7140  0.00  0.00     0.000 HD
BRANCH 21 30
ATOM     28   N  SGN C   2      17.393   2.861  22.0020  0.00  0.00     0.000 N
ATOM     30  HD  SGN C   2      16.939   2.213  22.3540  0.00  0.00     0.000 HD
ATOM     30   S  SGN C   2      18.384   2.031  22.9440  0.00  0.00     0.000 S
ATOM     31   O  SGN C   2      17.804   2.086  24.2430  0.00  0.00     0.000 OA
ATOM     32   O  SGN C   2      18.638   0.778  22.3360  0.00  0.00     0.000 OA
ATOM     33   O  SGN C   2      19.723   2.843  22.8960  0.00  0.00     0.000 OA
ENDBRANCH 21 30
BRANCH 24 34
ATOM     34   C  SGN C   2      15.605   8.224  22.7250  0.00  0.00     0.000 C
ATOM     35   O  SGN C   2      16.437   8.516  23.8620  0.00  0.00     0.000 O
ATOM     36   S  SGN C   2      15.842   9.511  24.9590  0.00  0.00     0.000 S
ATOM     37   O  SGN C   2      14.561   8.938  25.3230  0.00  0.00     0.000 OA
ATOM     38   O  SGN C   2      16.798   9.513  26.0410  0.00  0.00     0.000 OA
ATOM     39   O  SGN C   2      15.744  10.773  24.2680  0.00  0.00     0.000 OA
ENDBRANCH 24 34
BRANCH 20 40
ATOM     40  O4  IDS C   3      18.431   5.743  21.0320  0.00  0.00     0.000 O
BRANCH 40 44
ATOM     41  C1  IDS C   3      20.194   5.914  17.9840  0.00  0.00     0.000 C
ATOM     42  C2  IDS C   3      20.369   4.739  18.9420  0.00  0.00     0.000 C
ATOM     43  C3  IDS C   3      20.691   5.243  20.3470  0.00  0.00     0.000 C
ATOM     44  C4  IDS C   3      19.717   6.321  20.7960  0.00  0.00     0.000 C
ATOM     45  C5  IDS C   3      19.605   7.413  19.7110  0.00  0.00     0.000 C
ATOM     46  O5  IDS C   3      19.206   6.817  18.4750  0.00  0.00     0.000 O
ATOM     47   O  IDS C   3      22.023   5.750  20.3740  0.00  0.00     0.000 O
ATOM     49  HD  IDS C   3      21.449   5.102  20.3540  0.00  0.00     0.000 HD
BRANCH 42 49
ATOM     49   O  IDS C   3      19.124   3.939  19.0000  0.00  0.00     0.000 O
ATOM     50   S  IDS C   3      19.128   2.426  18.4740  0.00  0.00     0.000 S
ATOM     51   O  IDS C   3      19.884   1.723  19.4870  0.00  0.00     0.000 OA
ATOM     52   O  IDS C   3      19.760   2.371  17.1660  0.00  0.00     0.000 OA
ATOM     53   O  IDS C   3      17.739   2.019  18.4230  0.00  0.00     0.000 OA
ENDBRANCH 42 49
BRANCH 45 54
ATOM     54   C  IDS C   3      18.618   8.514  20.0640  0.00  0.00     0.000 C
ATOM     55   O  IDS C   3      17.676   8.723  19.3440  0.00  0.00     0.000 OA
ATOM     56   O  IDS C   3      18.791   9.188  21.0600  0.00  0.00     0.000 OA
ENDBRANCH 45 54
BRANCH 41 57
ATOM     57  O4  SGN C   4      21.421   6.338  17.6560  0.00  0.00     0.000 O
BRANCH 57 61
ATOM     58  C1  SGN C   4      23.239   8.523  14.5830  0.00  0.00     0.000 C
ATOM     59  C2  SGN C   4      22.043   9.184  15.2870  0.00  0.00     0.000 C
ATOM     60  C3  SGN C   4      21.737   8.496  16.6240  0.00  0.00     0.000 C
ATOM     61  C4  SGN C   4      21.555   7.004  16.3970  0.00  0.00     0.000 C
ATOM     62  C5  SGN C   4      22.765   6.421  15.6690  0.00  0.00     0.000 C
ATOM     63  O5  SGN C   4      23.007   7.130  14.4390  0.00  0.00     0.000 O
BRANCH 59 66
ATOM     64   N  SGN C   4      22.375  10.612  15.3220  0.00  0.00     0.000 N
ATOM     66  HD  SGN C   4      22.028   9.835  15.4830  0.00  0.00     0.000 HD
ATOM     66   O  SGN C   4      21.933  12.970  14.9020  0.00  0.00     0.000 OA
ATOM     67   O  SGN C   4      21.307  11.286  13.2240  0.00  0.00     0.000 OA
ATOM     68   S  SGN C   4      21.337  11.688  14.7390  0.00  0.00     0.000 S
ATOM     69   O  SGN C   4      20.063  11.434  15.3090  0.00  0.00     0.000 OA
ENDBRANCH 59 66
BRANCH 62 70
ATOM     70   C  SGN C   4      22.552   4.971  15.3130  0.00  0.00     0.000 C
ATOM     71   S  SGN C   4      22.383   3.340  13.3420  0.00  0.00     0.000 S
ATOM     72   O  SGN C   4      23.248   2.418  14.0500  0.00  0.00     0.000 OA
ATOM     73   O  SGN C   4      20.977   3.149  13.6370  0.00  0.00     0.000 OA
ATOM     74   O  SGN C   4      22.675   3.439  11.9310  0.00  0.00     0.000 OA
ATOM     75   O  SGN C   4      22.767   4.773  13.9110  0.00  0.00     0.000 O
ENDBRANCH 62 70
ENDBRANCH 57 61
ENDBRANCH 41 57
ENDBRANCH 40 44
ENDBRANCH 20 40
ENDBRANCH 19 23
ENDBRANCH 1 19
TORSDOF 14
ENDMDL
MODEL 12
REMARK VINA RESULT:      -3.9     12.117     16.064
ROOT
ATOM      1  C1  IDS C   1      17.555   6.291  37.4090  0.00  0.00     0.000 C
ATOM      2  C2  IDS C   1      16.523   7.255  37.9650  0.00  0.00     0.000 C
ATOM      3  C3  IDS C   1      15.247   7.222  37.1320  0.00  0.00     0.000 C
ATOM      4  C4  IDS C   1      14.748   5.789  36.9430  0.00  0.00     0.000 C
ATOM      5  C5  IDS C   1      15.900   4.881  36.4670  0.00  0.00     0.000 C
ATOM      6  O5  IDS C   1      17.008   4.974  37.3560  0.00  0.00     0.000 O
ATOM      7   O  IDS C   1      15.490   7.838  35.8660  0.00  0.00     0.000 O
ATOM      9  HD  IDS C   1      14.847   7.296  35.6590  0.00  0.00     0.000 HD
ATOM      9   O  IDS C   1      14.245   5.302  38.1960  0.00  0.00     0.000 O
ATOM     11  HD  IDS C   1      13.602   4.759  37.9900  0.00  0.00     0.000 HD
ENDROOT
BRANCH 2 11
ATOM     11   O  IDS C   1      16.164   6.876  39.3500  0.00  0.00     0.000 O
ATOM     12   S  IDS C   1      17.037   7.391  40.5860  0.00  0.00     0.000 S
ATOM     13   O  IDS C   1      16.036   7.566  41.6160  0.00  0.00     0.000 OA
ATOM     14   O  IDS C   1      17.697   8.622  40.2260  0.00  0.00     0.000 OA
ATOM     15   O  IDS C   1      17.955   6.313  40.8560  0.00  0.00     0.000 OA
ENDBRANCH 2 11
BRANCH 5 16
ATOM     16   C  IDS C   1      15.509   3.418  36.3670  0.00  0.00     0.000 C
ATOM     17   O  IDS C   1      15.486   2.749  37.3780  0.00  0.00     0.000 OA
ATOM     18   O  IDS C   1      15.241   2.924  35.3070  0.00  0.00     0.000 OA
ENDBRANCH 5 16
BRANCH 1 19
ATOM     19  O4  SGN C   2      18.287   6.662  36.3540  0.00  0.00     0.000 O
BRANCH 19 23
ATOM     20  C1  SGN C   2      22.057   6.486  34.5700  0.00  0.00     0.000 C
ATOM     21  C2  SGN C   2      21.205   5.213  34.4970  0.00  0.00     0.000 C
ATOM     22  C3  SGN C   2      19.744   5.553  34.7840  0.00  0.00     0.000 C
ATOM     23  C4  SGN C   2      19.634   6.237  36.1420  0.00  0.00     0.000 C
ATOM     24  C5  SGN C   2      20.569   7.448  36.1910  0.00  0.00     0.000 C
ATOM     25  O5  SGN C   2      21.911   7.043  35.8660  0.00  0.00     0.000 O
ATOM     26   O  SGN C   2      18.941   4.380  34.7360  0.00  0.00     0.000 O
ATOM     28  HD  SGN C   2      18.516   3.634  34.6200  0.00  0.00     0.000 HD
BRANCH 21 30
ATOM     28   N  SGN C   2      21.338   4.456  33.2450  0.00  0.00     0.000 N
ATOM     30  HD  SGN C   2      20.948   3.685  33.1940  0.00  0.00     0.000 HD
ATOM     30   S  SGN C   2      22.477   3.348  33.0640  0.00  0.00     0.000 S
ATOM     31   O  SGN C   2      22.322   2.464  34.1700  0.00  0.00     0.000 OA
ATOM     32   O  SGN C   2      22.409   2.845  31.7420  0.00  0.00     0.000 OA
ATOM     33   O  SGN C   2      23.815   4.155  33.1780  0.00  0.00     0.000 OA
ENDBRANCH 21 30
BRANCH 24 34
ATOM     34   C  SGN C   2      20.640   8.105  37.5500  0.00  0.00     0.000 C
ATOM     35   O  SGN C   2      21.401   9.321  37.4420  0.00  0.00     0.000 O
ATOM     36   S  SGN C   2      22.001   9.923  38.7930  0.00  0.00     0.000 S
ATOM     37   O  SGN C   2      22.751   8.831  39.3820  0.00  0.00     0.000 OA
ATOM     38   O  SGN C   2      22.828  11.035  38.3900  0.00  0.00     0.000 OA
ATOM     39   O  SGN C   2      20.836  10.309  39.5510  0.00  0.00     0.000 OA
ENDBRANCH 24 34
BRANCH 20 40
ATOM     40  O4  IDS C   3      21.832   7.430  33.6590  0.00  0.00     0.000 O
BRANCH 40 44
ATOM     41  C1  IDS C   3      22.475   9.539  30.9080  0.00  0.00     0.000 C
ATOM     42  C2  IDS C   3      23.511   8.533  31.4030  0.00  0.00     0.000 C
ATOM     43  C3  IDS C   3      23.740   8.701  32.9030  0.00  0.00     0.000 C
ATOM     44  C4  IDS C   3      22.429   8.729  33.6730  0.00  0.00     0.000 C
ATOM     45  C5  IDS C   3      21.466   9.751  33.0320  0.00  0.00     0.000 C
ATOM     46  O5  IDS C   3      21.267   9.421  31.6560  0.00  0.00     0.000 O
ATOM     47   O  IDS C   3      24.468   9.903  33.1400  0.00  0.00     0.000 O
ATOM     49  HD  IDS C   3      24.411   9.078  32.8810  0.00  0.00     0.000 HD
BRANCH 42 49
ATOM     49   O  IDS C   3      23.043   7.151  31.1460  0.00  0.00     0.000 O
ATOM     50   S  IDS C   3      23.766   6.265  30.0240  0.00  0.00     0.000 S
ATOM     51   O  IDS C   3      25.046   5.953  30.6190  0.00  0.00     0.000 OA
ATOM     52   O  IDS C   3      23.893   7.042  28.8020  0.00  0.00     0.000 OA
ATOM     53   O  IDS C   3      22.930   5.097  29.8410  0.00  0.00     0.000 OA
ENDBRANCH 42 49
BRANCH 45 54
ATOM     54   C  IDS C   3      20.111   9.814  33.7190  0.00  0.00     0.000 C
ATOM     55   O  IDS C   3      19.190   9.173  33.2830  0.00  0.00     0.000 OA
ATOM     56   O  IDS C   3      19.958  10.524  34.6940  0.00  0.00     0.000 OA
ENDBRANCH 45 54
BRANCH 41 57
ATOM     57  O4  SGN C   4      23.101  10.715  30.7800  0.00  0.00     0.000 O
BRANCH 57 61
ATOM     58  C1  SGN C   4      22.125  14.483  29.2380  0.00  0.00     0.000 C
ATOM     59  C2  SGN C   4      21.954  14.291  30.7530  0.00  0.00     0.000 C
ATOM     60  C3  SGN C   4      22.714  13.051  31.2440  0.00  0.00     0.000 C
ATOM     61  C4  SGN C   4      22.288  11.840  30.4310  0.00  0.00     0.000 C
ATOM     62  C5  SGN C   4      22.457  12.112  28.9370  0.00  0.00     0.000 C
ATOM     63  O5  SGN C   4      21.739  13.300  28.5530  0.00  0.00     0.000 O
BRANCH 59 66
ATOM     64   N  SGN C   4      21.580  15.593  31.3150  0.00  0.00     0.000 N
ATOM     66  HD  SGN C   4      21.957  14.964  30.8540  0.00  0.00     0.000 HD
ATOM     66   O  SGN C   4      21.935  17.549  32.7230  0.00  0.00     0.000 OA
ATOM     67   O  SGN C   4      22.547  15.316  33.5490  0.00  0.00     0.000 OA
ATOM     68   S  SGN C   4      22.562  16.327  32.3500  0.00  0.00     0.000 S
ATOM     69   O  SGN C   4      23.864  16.356  31.7880  0.00  0.00     0.000 OA
ENDBRANCH 59 66
BRANCH 62 70
ATOM     70   C  SGN C   4      21.917  10.977  28.1030  0.00  0.00     0.000 C
ATOM     71   S  SGN C   4      19.969   9.324  27.8940  0.00  0.00     0.000 S
ATOM     72   O  SGN C   4      19.900   9.606  26.4740  0.00  0.00     0.000 OA
ATOM     73   O  SGN C   4      20.871   8.238  28.2210  0.00  0.00     0.000 OA
ATOM     74   O  SGN C   4      18.673   9.214  28.5250  0.00  0.00     0.000 OA
ATOM     75   O  SGN C   4      20.596  10.633  28.5380  0.00  0.00     0.000 O
ENDBRANCH 62 70
ENDBRANCH 57 61
ENDBRANCH 41 57
ENDBRANCH 40 44
ENDBRANCH 20 40
ENDBRANCH 19 23
ENDBRANCH 1 19
TORSDOF 14
ENDMDL
MODEL 13
REMARK VINA RESULT:      -3.8     13.258     16.127
ROOT
ATOM      1  C1  IDS C   1      17.253   7.725  37.2250  0.00  0.00     0.000 C
ATOM      2  C2  IDS C   1      16.355   8.949  37.2630  0.00  0.00     0.000 C
ATOM      3  C3  IDS C   1      15.124   8.744  36.3880  0.00  0.00     0.000 C
ATOM      4  C4  IDS C   1      14.423   7.427  36.7220  0.00  0.00     0.000 C
ATOM      5  C5  IDS C   1      15.444   6.271  36.7470  0.00  0.00     0.000 C
ATOM      6  O5  IDS C   1      16.516   6.573  37.6330  0.00  0.00     0.000 O
ATOM      7   O  IDS C   1      15.507   8.772  35.0120  0.00  0.00     0.000 O
ATOM      9  HD  IDS C   1      14.799   8.276  34.9710  0.00  0.00     0.000 HD
ATOM      9   O  IDS C   1      13.802   7.542  38.0110  0.00  0.00     0.000 O
ATOM     11  HD  IDS C   1      13.094   7.046  37.9700  0.00  0.00     0.000 HD
ENDROOT
BRANCH 2 11
ATOM     11   O  IDS C   1      15.888   9.197  38.6450  0.00  0.00     0.000 O
ATOM     12   S  IDS C   1      16.777  10.051  39.6620  0.00  0.00     0.000 S
ATOM     13   O  IDS C   1      15.772  10.741  40.4420  0.00  0.00     0.000 OA
ATOM     14   O  IDS C   1      17.627  10.949  38.9180  0.00  0.00     0.000 OA
ATOM     15   O  IDS C   1      17.513   9.067  40.4160  0.00  0.00     0.000 OA
ENDBRANCH 2 11
BRANCH 5 16
ATOM     16   C  IDS C   1      14.841   4.948  37.1840  0.00  0.00     0.000 C
ATOM     17   O  IDS C   1      15.560   4.121  37.7040  0.00  0.00     0.000 OA
ATOM     18   O  IDS C   1      13.677   4.714  37.0070  0.00  0.00     0.000 OA
ENDBRANCH 5 16
BRANCH 1 19
ATOM     19  O4  SGN C   2      18.074   7.554  36.1840  0.00  0.00     0.000 O
BRANCH 19 23
ATOM     20  C1  SGN C   2      21.934   6.378  35.1160  0.00  0.00     0.000 C
ATOM     21  C2  SGN C   2      20.854   5.290  35.0850  0.00  0.00     0.000 C
ATOM     22  C3  SGN C   2      19.471   5.938  35.0650  0.00  0.00     0.000 C
ATOM     23  C4  SGN C   2      19.319   6.859  36.2700  0.00  0.00     0.000 C
ATOM     24  C5  SGN C   2      20.470   7.868  36.3020  0.00  0.00     0.000 C
ATOM     25  O5  SGN C   2      21.729   7.172  36.2730  0.00  0.00     0.000 O
ATOM     26   O  SGN C   2      18.455   4.942  35.0510  0.00  0.00     0.000 O
ATOM     28  HD  SGN C   2      17.904   4.278  34.9750  0.00  0.00     0.000 HD
BRANCH 21 30
ATOM     28   N  SGN C   2      20.882   4.233  34.0660  0.00  0.00     0.000 N
ATOM     30  HD  SGN C   2      20.412   3.520  34.2080  0.00  0.00     0.000 HD
ATOM     30   S  SGN C   2      21.895   3.000  34.1780  0.00  0.00     0.000 S
ATOM     31   O  SGN C   2      21.671   2.445  35.4700  0.00  0.00     0.000 OA
ATOM     32   O  SGN C   2      21.748   2.191  33.0250  0.00  0.00     0.000 OA
ATOM     33   O  SGN C   2      23.312   3.664  34.0940  0.00  0.00     0.000 OA
ENDBRANCH 21 30
BRANCH 24 34
ATOM     34   C  SGN C   2      20.487   8.730  37.5420  0.00  0.00     0.000 C
ATOM     35   O  SGN C   2      21.814   8.724  38.0970  0.00  0.00     0.000 O
ATOM     36   S  SGN C   2      21.963   9.159  39.6260  0.00  0.00     0.000 S
ATOM     37   O  SGN C   2      21.041   8.301  40.3440  0.00  0.00     0.000 OA
ATOM     38   O  SGN C   2      23.346   8.925  39.9640  0.00  0.00     0.000 OA
ATOM     39   O  SGN C   2      21.590  10.552  39.6300  0.00  0.00     0.000 OA
ENDBRANCH 24 34
BRANCH 20 40
ATOM     40  O4  IDS C   3      22.040   7.172  34.0530  0.00  0.00     0.000 O
BRANCH 40 44
ATOM     41  C1  IDS C   3      23.397   8.435  31.0550  0.00  0.00     0.000 C
ATOM     42  C2  IDS C   3      24.042   7.264  31.7920  0.00  0.00     0.000 C
ATOM     43  C3  IDS C   3      24.274   7.622  33.2580  0.00  0.00     0.000 C
ATOM     44  C4  IDS C   3      23.022   8.199  33.9020  0.00  0.00     0.000 C
ATOM     45  C5  IDS C   3      22.456   9.335  33.0240  0.00  0.00     0.000 C
ATOM     46  O5  IDS C   3      22.197   8.838  31.7100  0.00  0.00     0.000 O
ATOM     47   O  IDS C   3      25.344   8.559  33.3530  0.00  0.00     0.000 O
ATOM     49  HD  IDS C   3      25.031   7.761  33.2290  0.00  0.00     0.000 HD
BRANCH 42 49
ATOM     49   O  IDS C   3      23.160   6.075  31.7290  0.00  0.00     0.000 O
ATOM     50   S  IDS C   3      23.486   4.900  30.6890  0.00  0.00     0.000 S
ATOM     51   O  IDS C   3      24.659   4.271  31.2550  0.00  0.00     0.000 OA
ATOM     52   O  IDS C   3      23.738   5.473  29.3770  0.00  0.00     0.000 OA
ATOM     53   O  IDS C   3      22.326   4.034  30.6910  0.00  0.00     0.000 OA
ENDBRANCH 42 49
BRANCH 45 54
ATOM     54   C  IDS C   3      21.177   9.943  33.5780  0.00  0.00     0.000 C
ATOM     55   O  IDS C   3      21.236  10.740  34.4780  0.00  0.00     0.000 OA
ATOM     56   O  IDS C   3      20.100   9.609  33.1220  0.00  0.00     0.000 OA
ENDBRANCH 45 54
BRANCH 41 57
ATOM     57  O4  SGN C   4      24.371   9.313  30.7870  0.00  0.00     0.000 O
BRANCH 57 61
ATOM     58  C1  SGN C   4      24.899  12.788  28.5130  0.00  0.00     0.000 C
ATOM     59  C2  SGN C   4      23.775  12.812  29.5620  0.00  0.00     0.000 C
ATOM     60  C3  SGN C   4      23.946  11.679  30.5830  0.00  0.00     0.000 C
ATOM     61  C4  SGN C   4      24.061  10.351  29.8530  0.00  0.00     0.000 C
ATOM     62  C5  SGN C   4      25.175  10.409  28.8090  0.00  0.00     0.000 C
ATOM     63  O5  SGN C   4      24.964  11.508  27.9020  0.00  0.00     0.000 O
BRANCH 59 66
ATOM     64   N  SGN C   4      23.723  14.137  30.1880  0.00  0.00     0.000 N
ATOM     66  HD  SGN C   4      23.576  13.309  29.9810  0.00  0.00     0.000 HD
ATOM     66   O  SGN C   4      22.722  16.319  30.6060  0.00  0.00     0.000 OA
ATOM     67   O  SGN C   4      22.698  15.373  28.3370  0.00  0.00     0.000 OA
ATOM     68   S  SGN C   4      22.495  15.121  29.8710  0.00  0.00     0.000 S
ATOM     69   O  SGN C   4      21.286  14.404  30.0650  0.00  0.00     0.000 OA
ENDBRANCH 59 66
BRANCH 62 70
ATOM     70   C  SGN C   4      25.222   9.151  27.9790  0.00  0.00     0.000 C
ATOM     71   S  SGN C   4      24.341   8.071  25.8270  0.00  0.00     0.000 S
ATOM     72   O  SGN C   4      25.680   7.600  25.5320  0.00  0.00     0.000 OA
ATOM     73   O  SGN C   4      23.568   7.140  26.6250  0.00  0.00     0.000 OA
ATOM     74   O  SGN C   4      23.636   8.571  24.6690  0.00  0.00     0.000 OA
ATOM     75   O  SGN C   4      24.555   9.361  26.7290  0.00  0.00     0.000 O
ENDBRANCH 62 70
ENDBRANCH 57 61
ENDBRANCH 41 57
ENDBRANCH 40 44
ENDBRANCH 20 40
ENDBRANCH 19 23
ENDBRANCH 1 19
TORSDOF 14
ENDMDL
MODEL 14
REMARK VINA RESULT:      -3.8      4.154      9.088
ROOT
ATOM      1  C1  IDS C   1      16.725  14.519  22.3590  0.00  0.00     0.000 C
ATOM      2  C2  IDS C   1      18.055  14.440  21.6310  0.00  0.00     0.000 C
ATOM      3  C3  IDS C   1      17.863  14.626  20.1310  0.00  0.00     0.000 C
ATOM      4  C4  IDS C   1      17.044  15.881  19.8310  0.00  0.00     0.000 C
ATOM      5  C5  IDS C   1      15.765  15.903  20.6920  0.00  0.00     0.000 C
ATOM      6  O5  IDS C   1      16.090  15.764  22.0710  0.00  0.00     0.000 O
ATOM      7   O  IDS C   1      17.224  13.470  19.5860  0.00  0.00     0.000 O
ATOM      9  HD  IDS C   1      16.970  14.075  19.0200  0.00  0.00     0.000 HD
ATOM      9   O  IDS C   1      17.839  17.039  20.1300  0.00  0.00     0.000 O
ATOM     11  HD  IDS C   1      17.585  17.644  19.5650  0.00  0.00     0.000 HD
ENDROOT
BRANCH 2 11
ATOM     11   O  IDS C   1      18.961  15.510  22.1050  0.00  0.00     0.000 O
ATOM     12   S  IDS C   1      20.263  15.155  22.9600  0.00  0.00     0.000 S
ATOM     13   O  IDS C   1      21.205  16.159  22.5160  0.00  0.00     0.000 OA
ATOM     14   O  IDS C   1      20.686  13.810  22.6520  0.00  0.00     0.000 OA
ATOM     15   O  IDS C   1      19.852  15.320  24.3320  0.00  0.00     0.000 OA
ENDBRANCH 2 11
BRANCH 5 16
ATOM     16   C  IDS C   1      14.956  17.178  20.5340  0.00  0.00     0.000 C
ATOM     17   O  IDS C   1      13.948  17.316  21.1940  0.00  0.00     0.000 OA
ATOM     18   O  IDS C   1      15.295  18.029  19.7590  0.00  0.00     0.000 OA
ENDBRANCH 5 16
BRANCH 1 19
ATOM     19  O4  SGN C   2      15.927  13.447  22.3730  0.00  0.00     0.000 O
BRANCH 19 23
ATOM     20  C1  SGN C   2      13.054  11.338  24.5460  0.00  0.00     0.000 C
ATOM     21  C2  SGN C   2      12.602  12.662  23.9180  0.00  0.00     0.000 C
ATOM     22  C3  SGN C   2      13.587  13.079  22.8290  0.00  0.00     0.000 C
ATOM     23  C4  SGN C   2      14.991  13.176  23.4170  0.00  0.00     0.000 C
ATOM     24  C5  SGN C   2      15.357  11.859  24.1060  0.00  0.00     0.000 C
ATOM     25  O5  SGN C   2      14.354  11.523  25.0820  0.00  0.00     0.000 O
ATOM     26   O  SGN C   2      13.192  14.314  22.2450  0.00  0.00     0.000 O
ATOM     28  HD  SGN C   2      12.846  15.029  21.8990  0.00  0.00     0.000 HD
BRANCH 21 30
ATOM     28   N  SGN C   2      11.253  12.099  24.0660  0.00  0.00     0.000 N
ATOM     30  HD  SGN C   2      10.742  12.083  23.3670  0.00  0.00     0.000 HD
ATOM     30   S  SGN C   2       9.992  13.037  24.3670  0.00  0.00     0.000 S
ATOM     31   O  SGN C   2      10.011  14.032  23.3480  0.00  0.00     0.000 OA
ATOM     32   O  SGN C   2       8.851  12.215  24.5320  0.00  0.00     0.000 OA
ATOM     33   O  SGN C   2      10.311  13.665  25.7660  0.00  0.00     0.000 OA
ENDBRANCH 21 30
BRANCH 24 34
ATOM     34   C  SGN C   2      16.673  11.908  24.8480  0.00  0.00     0.000 C
ATOM     35   O  SGN C   2      17.646  11.136  24.1230  0.00  0.00     0.000 O
ATOM     36   S  SGN C   2      18.938  10.657  24.9300  0.00  0.00     0.000 S
ATOM     37   O  SGN C   2      18.413   9.968  26.0930  0.00  0.00     0.000 OA
ATOM     38   O  SGN C   2      19.662   9.793  24.0290  0.00  0.00     0.000 OA
ATOM     39   O  SGN C   2      19.630  11.884  25.2410  0.00  0.00     0.000 OA
ENDBRANCH 24 34
BRANCH 20 40
ATOM     40  O4  IDS C   3      13.050  10.256  23.7710  0.00  0.00     0.000 O
BRANCH 40 44
ATOM     41  C1  IDS C   3      12.276   7.406  21.8460  0.00  0.00     0.000 C
ATOM     42  C2  IDS C   3      11.183   8.314  22.4030  0.00  0.00     0.000 C
ATOM     43  C3  IDS C   3      11.377   8.521  23.9030  0.00  0.00     0.000 C
ATOM     44  C4  IDS C   3      12.805   8.926  24.2350  0.00  0.00     0.000 C
ATOM     45  C5  IDS C   3      13.797   7.951  23.5680  0.00  0.00     0.000 C
ATOM     46  O5  IDS C   3      13.566   7.926  22.1580  0.00  0.00     0.000 O
ATOM     47   O  IDS C   3      11.040   7.321  24.5930  0.00  0.00     0.000 O
ATOM     49  HD  IDS C   3      10.832   8.042  24.1620  0.00  0.00     0.000 HD
BRANCH 42 49
ATOM     49   O  IDS C   3      11.228   9.635  21.7330  0.00  0.00     0.000 O
ATOM     50   S  IDS C   3      10.001  10.100  20.8130  0.00  0.00     0.000 S
ATOM     51   O  IDS C   3       8.954  10.379  21.7700  0.00  0.00     0.000 OA
ATOM     52   O  IDS C   3       9.650   9.027  19.8970  0.00  0.00     0.000 OA
ATOM     53   O  IDS C   3      10.455  11.284  20.1140  0.00  0.00     0.000 OA
ENDBRANCH 42 49
BRANCH 45 54
ATOM     54   C  IDS C   3      15.253   8.308  23.8180  0.00  0.00     0.000 C
ATOM     55   O  IDS C   3      16.001   8.450  22.8860  0.00  0.00     0.000 OA
ATOM     56   O  IDS C   3      15.661   8.432  24.9570  0.00  0.00     0.000 OA
ENDBRANCH 45 54
BRANCH 41 57
ATOM     57  O4  SGN C   4      11.939   6.150  22.1610  0.00  0.00     0.000 O
BRANCH 57 61
ATOM     58  C1  SGN C   4      13.160   2.318  20.9970  0.00  0.00     0.000 C
ATOM     59  C2  SGN C   4      14.244   3.407  21.0350  0.00  0.00     0.000 C
ATOM     60  C3  SGN C   4      13.781   4.622  21.8500  0.00  0.00     0.000 C
ATOM     61  C4  SGN C   4      12.448   5.116  21.3130  0.00  0.00     0.000 C
ATOM     62  C5  SGN C   4      11.430   3.977  21.2760  0.00  0.00     0.000 C
ATOM     63  O5  SGN C   4      11.940   2.865  20.5170  0.00  0.00     0.000 O
BRANCH 59 66
ATOM     64   N  SGN C   4      15.464   2.742  21.5040  0.00  0.00     0.000 N
ATOM     66  HD  SGN C   4      14.872   3.336  21.2850  0.00  0.00     0.000 HD
ATOM     66   O  SGN C   4      17.787   2.040  21.2980  0.00  0.00     0.000 OA
ATOM     67   O  SGN C   4      16.301   1.952  19.3420  0.00  0.00     0.000 OA
ATOM     68   S  SGN C   4      16.785   2.764  20.5930  0.00  0.00     0.000 S
ATOM     69   O  SGN C   4      17.038   4.104  20.2040  0.00  0.00     0.000 OA
ENDBRANCH 59 66
BRANCH 62 70
ATOM     70   C  SGN C   4      10.141   4.407  20.6220  0.00  0.00     0.000 C
ATOM     71   S  SGN C   4       7.643   4.791  21.0540  0.00  0.00     0.000 S
ATOM     72   O  SGN C   4       7.727   6.049  20.3380  0.00  0.00     0.000 OA
ATOM     73   O  SGN C   4       7.334   3.663  20.1990  0.00  0.00     0.000 OA
ATOM     74   O  SGN C   4       6.830   4.858  22.2470  0.00  0.00     0.000 OA
ATOM     75   O  SGN C   4       9.110   4.542  21.6080  0.00  0.00     0.000 O
ENDBRANCH 62 70
ENDBRANCH 57 61
ENDBRANCH 41 57
ENDBRANCH 40 44
ENDBRANCH 20 40
ENDBRANCH 19 23
ENDBRANCH 1 19
TORSDOF 14
ENDMDL
MODEL 15
REMARK VINA RESULT:      -3.6      8.253     12.688
ROOT
ATOM      1  C1  IDS C   1      13.676   4.898  21.5910  0.00  0.00     0.000 C
ATOM      2  C2  IDS C   1      12.624   5.627  20.7750  0.00  0.00     0.000 C
ATOM      3  C3  IDS C   1      12.026   4.706  19.7180  0.00  0.00     0.000 C
ATOM      4  C4  IDS C   1      11.558   3.388  20.3340  0.00  0.00     0.000 C
ATOM      5  C5  IDS C   1      12.671   2.786  21.2150  0.00  0.00     0.000 C
ATOM      6  O5  IDS C   1      13.106   3.733  22.1850  0.00  0.00     0.000 O
ATOM      7   O  IDS C   1      12.994   4.464  18.6950  0.00  0.00     0.000 O
ATOM      9  HD  IDS C   1      12.516   3.744  18.6370  0.00  0.00     0.000 HD
ATOM      9   O  IDS C   1      10.395   3.637  21.1400  0.00  0.00     0.000 O
ATOM     11  HD  IDS C   1       9.918   2.917  21.0810  0.00  0.00     0.000 HD
ENDROOT
BRANCH 2 11
ATOM     11   O  IDS C   1      11.521   6.080  21.6520  0.00  0.00     0.000 O
ATOM     12   S  IDS C   1      11.691   7.376  22.5700  0.00  0.00     0.000 S
ATOM     13   O  IDS C   1      10.357   7.935  22.5630  0.00  0.00     0.000 OA
ATOM     14   O  IDS C   1      12.673   8.254  21.9810  0.00  0.00     0.000 OA
ATOM     15   O  IDS C   1      12.090   6.860  23.8560  0.00  0.00     0.000 OA
ENDBRANCH 2 11
BRANCH 5 16
ATOM     16   C  IDS C   1      12.239   1.532  21.9540  0.00  0.00     0.000 C
ATOM     17   O  IDS C   1      11.855   1.633  23.1000  0.00  0.00     0.000 OA
ATOM     18   O  IDS C   1      12.290   0.457  21.4240  0.00  0.00     0.000 OA
ENDBRANCH 5 16
BRANCH 1 19
ATOM     19  O4  SGN C   2      14.905   4.754  21.0850  0.00  0.00     0.000 O
BRANCH 19 23
ATOM     20  C1  SGN C   2      18.981   4.681  21.9810  0.00  0.00     0.000 C
ATOM     21  C2  SGN C   2      18.185   3.412  22.3080  0.00  0.00     0.000 C
ATOM     22  C3  SGN C   2      16.862   3.422  21.5470  0.00  0.00     0.000 C
ATOM     23  C4  SGN C   2      16.084   4.688  21.8880  0.00  0.00     0.000 C
ATOM     24  C5  SGN C   2      16.955   5.920  21.6250  0.00  0.00     0.000 C
ATOM     25  O5  SGN C   2      18.195   5.804  22.3450  0.00  0.00     0.000 O
ATOM     26   O  SGN C   2      16.103   2.258  21.8520  0.00  0.00     0.000 O
ATOM     28  HD  SGN C   2      15.738   1.495  22.0370  0.00  0.00     0.000 HD
BRANCH 21 30
ATOM     28   N  SGN C   2      18.749   2.061  22.1890  0.00  0.00     0.000 N
ATOM     30  HD  SGN C   2      18.378   1.425  22.6460  0.00  0.00     0.000 HD
ATOM     30   S  SGN C   2      19.833   1.519  23.2340  0.00  0.00     0.000 S
ATOM     31   O  SGN C   2      19.245   1.706  24.5170  0.00  0.00     0.000 OA
ATOM     32   O  SGN C   2      20.244   0.228  22.8250  0.00  0.00     0.000 OA
ATOM     33   O  SGN C   2      21.059   2.474  23.0380  0.00  0.00     0.000 OA
ENDBRANCH 21 30
BRANCH 24 34
ATOM     34   C  SGN C   2      16.322   7.217  22.0730  0.00  0.00     0.000 C
ATOM     35   O  SGN C   2      17.275   7.956  22.8570  0.00  0.00     0.000 O
ATOM     36   S  SGN C   2      16.699   9.098  23.8120  0.00  0.00     0.000 S
ATOM     37   O  SGN C   2      15.692   8.434  24.6160  0.00  0.00     0.000 OA
ATOM     38   O  SGN C   2      17.827   9.570  24.5790  0.00  0.00     0.000 OA
ATOM     39   O  SGN C   2      16.166  10.079  22.8980  0.00  0.00     0.000 OA
ENDBRANCH 24 34
BRANCH 20 40
ATOM     40  O4  IDS C   3      19.408   4.834  20.7290  0.00  0.00     0.000 O
BRANCH 40 44
ATOM     41  C1  IDS C   3      21.535   4.400  17.9510  0.00  0.00     0.000 C
ATOM     42  C2  IDS C   3      21.850   3.767  19.3040  0.00  0.00     0.000 C
ATOM     43  C3  IDS C   3      21.801   4.821  20.4070  0.00  0.00     0.000 C
ATOM     44  C4  IDS C   3      20.523   5.643  20.3450  0.00  0.00     0.000 C
ATOM     45  C5  IDS C   3      20.310   6.175  18.9120  0.00  0.00     0.000 C
ATOM     46  O5  IDS C   3      20.282   5.078  17.9960  0.00  0.00     0.000 O
ATOM     47   O  IDS C   3      22.935   5.677  20.2950  0.00  0.00     0.000 O
ATOM     49  HD  IDS C   3      22.558   4.927  20.5060  0.00  0.00     0.000 HD
BRANCH 42 49
ATOM     49   O  IDS C   3      20.860   2.709  19.6140  0.00  0.00     0.000 O
ATOM     50   S  IDS C   3      21.224   1.175  19.3330  0.00  0.00     0.000 S
ATOM     51   O  IDS C   3      22.196   0.870  20.3590  0.00  0.00     0.000 OA
ATOM     52   O  IDS C   3      21.770   1.045  17.9920  0.00  0.00     0.000 OA
ATOM     53   O  IDS C   3      19.988   0.438  19.4910  0.00  0.00     0.000 OA
ENDBRANCH 42 49
BRANCH 45 54
ATOM     54   C  IDS C   3      19.028   6.977  18.7520  0.00  0.00     0.000 C
ATOM     55   O  IDS C   3      18.859   7.969  19.4130  0.00  0.00     0.000 OA
ATOM     56   O  IDS C   3      18.174   6.607  17.9710  0.00  0.00     0.000 OA
ENDBRANCH 45 54
BRANCH 41 57
ATOM     57  O4  SGN C   4      22.647   5.022  17.5410  0.00  0.00     0.000 O
BRANCH 57 61
ATOM     58  C1  SGN C   4      24.385   6.231  13.9300  0.00  0.00     0.000 C
ATOM     59  C2  SGN C   4      22.949   6.709  14.2000  0.00  0.00     0.000 C
ATOM     60  C3  SGN C   4      22.586   6.560  15.6830  0.00  0.00     0.000 C
ATOM     61  C4  SGN C   4      22.839   5.129  16.1270  0.00  0.00     0.000 C
ATOM     62  C5  SGN C   4      24.273   4.713  15.8020  0.00  0.00     0.000 C
ATOM     63  O5  SGN C   4      24.551   4.902  14.4010  0.00  0.00     0.000 O
BRANCH 59 66
ATOM     64   N  SGN C   4      22.885   8.058  13.6280  0.00  0.00     0.000 N
ATOM     66  HD  SGN C   4      22.726   7.341  14.0880  0.00  0.00     0.000 HD
ATOM     66   O  SGN C   4      21.943   9.775  12.1790  0.00  0.00     0.000 OA
ATOM     67   O  SGN C   4      22.139   7.461  11.3720  0.00  0.00     0.000 OA
ATOM     68   S  SGN C   4      21.749   8.415  12.5530  0.00  0.00     0.000 S
ATOM     69   O  SGN C   4      20.494   8.010  13.0780  0.00  0.00     0.000 OA
ENDBRANCH 59 66
BRANCH 62 70
ATOM     70   C  SGN C   4      24.510   3.256  16.1100  0.00  0.00     0.000 C
ATOM     71   S  SGN C   4      25.146   1.007  15.0550  0.00  0.00     0.000 S
ATOM     72   O  SGN C   4      26.066   0.770  16.1500  0.00  0.00     0.000 OA
ATOM     73   O  SGN C   4      23.807   0.520  15.3150  0.00  0.00     0.000 OA
ATOM     74   O  SGN C   4      25.669   0.616  13.7660  0.00  0.00     0.000 OA
ATOM     75   O  SGN C   4      25.034   2.588  14.9550  0.00  0.00     0.000 O
ENDBRANCH 62 70
ENDBRANCH 57 61
ENDBRANCH 41 57
ENDBRANCH 40 44
ENDBRANCH 20 40
ENDBRANCH 19 23
ENDBRANCH 1 19
TORSDOF 14
ENDMDL
MODEL 16
REMARK VINA RESULT:      -3.4      9.182     13.448
ROOT
ATOM      1  C1  IDS C   1      20.848   6.892  35.7410  0.00  0.00     0.000 C
ATOM      2  C2  IDS C   1      19.716   6.116  36.3890  0.00  0.00     0.000 C
ATOM      3  C3  IDS C   1      19.486   4.793  35.6690  0.00  0.00     0.000 C
ATOM      4  C4  IDS C   1      20.791   4.013  35.5170  0.00  0.00     0.000 C
ATOM      5  C5  IDS C   1      21.893   4.923  34.9390  0.00  0.00     0.000 C
ATOM      6  O5  IDS C   1      22.034   6.099  35.7290  0.00  0.00     0.000 O
ATOM      7   O  IDS C   1      18.901   5.043  34.3900  0.00  0.00     0.000 O
ATOM      9  HD  IDS C   1      19.305   4.293  34.2370  0.00  0.00     0.000 HD
ATOM      9   O  IDS C   1      21.200   3.531  36.8070  0.00  0.00     0.000 O
ATOM     11  HD  IDS C   1      21.604   2.780  36.6540  0.00  0.00     0.000 HD
ENDROOT
BRANCH 2 11
ATOM     11   O  IDS C   1      20.049   5.808  37.7980  0.00  0.00     0.000 O
ATOM     12   S  IDS C   1      19.003   6.113  38.9670  0.00  0.00     0.000 S
ATOM     13   O  IDS C   1      19.250   5.028  39.8910  0.00  0.00     0.000 OA
ATOM     14   O  IDS C   1      17.665   6.099  38.4270  0.00  0.00     0.000 OA
ATOM     15   O  IDS C   1      19.395   7.403  39.4780  0.00  0.00     0.000 OA
ENDBRANCH 2 11
BRANCH 5 16
ATOM     16   C  IDS C   1      23.251   4.249  34.8660  0.00  0.00     0.000 C
ATOM     17   O  IDS C   1      23.300   3.039  34.7970  0.00  0.00     0.000 OA
ATOM     18   O  IDS C   1      24.261   4.897  34.8930  0.00  0.00     0.000 OA
ENDBRANCH 5 16
BRANCH 1 19
ATOM     19  O4  SGN C   2      20.602   7.591  34.6290  0.00  0.00     0.000 O
BRANCH 19 23
ATOM     20  C1  SGN C   2      21.317  11.163  32.5900  0.00  0.00     0.000 C
ATOM     21  C2  SGN C   2      22.514  10.221  32.7610  0.00  0.00     0.000 C
ATOM     22  C3  SGN C   2      22.022   8.820  33.1140  0.00  0.00     0.000 C
ATOM     23  C4  SGN C   2      21.160   8.881  34.3700  0.00  0.00     0.000 C
ATOM     24  C5  SGN C   2      20.032   9.899  34.1780  0.00  0.00     0.000 C
ATOM     25  O5  SGN C   2      20.585  11.174  33.8050  0.00  0.00     0.000 O
ATOM     26   O  SGN C   2      23.122   7.935  33.2920  0.00  0.00     0.000 O
ATOM     28  HD  SGN C   2      23.839   7.450  33.3140  0.00  0.00     0.000 HD
BRANCH 21 30
ATOM     28   N  SGN C   2      23.080  11.189  31.8120  0.00  0.00     0.000 N
ATOM     30  HD  SGN C   2      23.190  10.935  30.9910  0.00  0.00     0.000 HD
ATOM     30   S  SGN C   2      24.649  11.225  31.5000  0.00  0.00     0.000 S
ATOM     31   O  SGN C   2      24.988   9.895  31.1210  0.00  0.00     0.000 OA
ATOM     32   O  SGN C   2      24.906  12.300  30.6150  0.00  0.00     0.000 OA
ATOM     33   O  SGN C   2      25.301  11.597  32.8750  0.00  0.00     0.000 OA
ENDBRANCH 21 30
BRANCH 24 34
ATOM     34   C  SGN C   2      19.212  10.138  35.4230  0.00  0.00     0.000 C
ATOM     35   O  SGN C   2      19.574  11.412  35.9840  0.00  0.00     0.000 O
ATOM     36   S  SGN C   2      19.202  11.662  37.5160  0.00  0.00     0.000 S
ATOM     37   O  SGN C   2      19.785  10.540  38.2260  0.00  0.00     0.000 OA
ATOM     38   O  SGN C   2      19.798  12.931  37.8600  0.00  0.00     0.000 OA
ATOM     39   O  SGN C   2      17.759  11.675  37.5270  0.00  0.00     0.000 OA
ENDBRANCH 24 34
BRANCH 20 40
ATOM     40  O4  IDS C   3      20.484  10.923  31.5800  0.00  0.00     0.000 O
BRANCH 40 44
ATOM     41  C1  IDS C   3      18.867  10.623  28.4620  0.00  0.00     0.000 C
ATOM     42  C2  IDS C   3      20.322  11.068  28.5660  0.00  0.00     0.000 C
ATOM     43  C3  IDS C   3      20.454  12.229  29.5490  0.00  0.00     0.000 C
ATOM     44  C4  IDS C   3      19.760  11.930  30.8690  0.00  0.00     0.000 C
ATOM     45  C5  IDS C   3      18.318  11.446  30.6060  0.00  0.00     0.000 C
ATOM     46  O5  IDS C   3      18.349  10.301  29.7500  0.00  0.00     0.000 O
ATOM     47   O  IDS C   3      19.904  13.407  28.9670  0.00  0.00     0.000 O
ATOM     49  HD  IDS C   3      20.523  12.807  29.0440  0.00  0.00     0.000 HD
BRANCH 42 49
ATOM     49   O  IDS C   3      21.166   9.947  29.0410  0.00  0.00     0.000 O
ATOM     50   S  IDS C   3      22.354   9.400  28.1160  0.00  0.00     0.000 S
ATOM     51   O  IDS C   3      23.341  10.456  28.1830  0.00  0.00     0.000 OA
ATOM     52   O  IDS C   3      21.857   9.186  26.7670  0.00  0.00     0.000 OA
ATOM     53   O  IDS C   3      22.804   8.170  28.7320  0.00  0.00     0.000 OA
ENDBRANCH 42 49
BRANCH 45 54
ATOM     54   C  IDS C   3      17.563  11.086  31.8760  0.00  0.00     0.000 C
ATOM     55   O  IDS C   3      17.357  11.932  32.7070  0.00  0.00     0.000 OA
ATOM     56   O  IDS C   3      17.185   9.944  32.0540  0.00  0.00     0.000 OA
ENDBRANCH 45 54
BRANCH 41 57
ATOM     57  O4  SGN C   4      18.245  11.499  27.6620  0.00  0.00     0.000 O
BRANCH 57 61
ATOM     58  C1  SGN C   4      14.680  11.756  25.4840  0.00  0.00     0.000 C
ATOM     59  C2  SGN C   4      14.549  11.616  27.0090  0.00  0.00     0.000 C
ATOM     60  C3  SGN C   4      15.874  11.943  27.7110  0.00  0.00     0.000 C
ATOM     61  C4  SGN C   4      16.985  11.091  27.1200  0.00  0.00     0.000 C
ATOM     62  C5  SGN C   4      17.038  11.257  25.6020  0.00  0.00     0.000 C
ATOM     63  O5  SGN C   4      15.757  10.959  25.0150  0.00  0.00     0.000 O
BRANCH 59 66
ATOM     64   N  SGN C   4      13.120  11.749  27.3100  0.00  0.00     0.000 N
ATOM     66  HD  SGN C   4      13.917  11.867  26.9930  0.00  0.00     0.000 HD
ATOM     66   O  SGN C   4      11.201  12.799  28.3810  0.00  0.00     0.000 OA
ATOM     67   O  SGN C   4      13.308  12.540  29.6210  0.00  0.00     0.000 OA
ATOM     68   S  SGN C   4      12.613  12.930  28.2700  0.00  0.00     0.000 S
ATOM     69   O  SGN C   4      13.164  14.152  27.8040  0.00  0.00     0.000 OA
ENDBRANCH 59 66
BRANCH 62 70
ATOM     70   C  SGN C   4      18.043  10.323  24.9760  0.00  0.00     0.000 C
ATOM     71   S  SGN C   4      19.087   9.621  22.7430  0.00  0.00     0.000 S
ATOM     72   O  SGN C   4      20.398   9.651  23.3630  0.00  0.00     0.000 OA
ATOM     73   O  SGN C   4      18.429   8.335  22.8530  0.00  0.00     0.000 OA
ATOM     74   O  SGN C   4      19.067  10.174  21.4080  0.00  0.00     0.000 OA
ATOM     75   O  SGN C   4      18.215  10.642  23.5910  0.00  0.00     0.000 O
ENDBRANCH 62 70
ENDBRANCH 57 61
ENDBRANCH 41 57
ENDBRANCH 40 44
ENDBRANCH 20 40
ENDBRANCH 19 23
ENDBRANCH 1 19
TORSDOF 14
ENDMDL
MODEL 17
REMARK VINA RESULT:      -3.3      3.797      7.975
ROOT
ATOM      1  C1  IDS C   1      14.239  15.675  23.6700  0.00  0.00     0.000 C
ATOM      2  C2  IDS C   1      15.281  16.072  22.6390  0.00  0.00     0.000 C
ATOM      3  C3  IDS C   1      14.621  16.707  21.4210  0.00  0.00     0.000 C
ATOM      4  C4  IDS C   1      13.668  17.829  21.8320  0.00  0.00     0.000 C
ATOM      5  C5  IDS C   1      12.720  17.343  22.9470  0.00  0.00     0.000 C
ATOM      6  O5  IDS C   1      13.465  16.815  24.0390  0.00  0.00     0.000 O
ATOM      7   O  IDS C   1      13.923  15.704  20.6810  0.00  0.00     0.000 O
ATOM      9  HD  IDS C   1      13.467  16.408  20.4660  0.00  0.00     0.000 HD
ATOM      9   O  IDS C   1      14.437  18.942  22.3130  0.00  0.00     0.000 O
ATOM     11  HD  IDS C   1      13.981  19.647  22.0980  0.00  0.00     0.000 HD
ENDROOT
BRANCH 2 11
ATOM     11   O  IDS C   1      16.215  17.066  23.2140  0.00  0.00     0.000 O
ATOM     12   S  IDS C   1      17.636  16.611  23.7860  0.00  0.00     0.000 S
ATOM     13   O  IDS C   1      18.476  17.741  23.4550  0.00  0.00     0.000 OA
ATOM     14   O  IDS C   1      18.047  15.392  23.1320  0.00  0.00     0.000 OA
ATOM     15   O  IDS C   1      17.422  16.450  25.2030  0.00  0.00     0.000 OA
ENDBRANCH 2 11
BRANCH 5 16
ATOM     16   C  IDS C   1      11.819  18.438  23.4880  0.00  0.00     0.000 C
ATOM     17   O  IDS C   1      11.119  18.197  24.4490  0.00  0.00     0.000 OA
ATOM     18   O  IDS C   1      11.785  19.520  22.9690  0.00  0.00     0.000 OA
ENDBRANCH 5 16
BRANCH 1 19
ATOM     19  O4  SGN C   2      13.559  14.537  23.5000  0.00  0.00     0.000 O
BRANCH 19 23
ATOM     20  C1  SGN C   2      11.688  11.336  25.4190  0.00  0.00     0.000 C
ATOM     21  C2  SGN C   2      11.041  12.715  25.5970  0.00  0.00     0.000 C
ATOM     22  C3  SGN C   2      11.554  13.669  24.5220  0.00  0.00     0.000 C
ATOM     23  C4  SGN C   2      13.075  13.741  24.5830  0.00  0.00     0.000 C
ATOM     24  C5  SGN C   2      13.666  12.332  24.4880  0.00  0.00     0.000 C
ATOM     25  O5  SGN C   2      13.095  11.493  25.5080  0.00  0.00     0.000 O
ATOM     26   O  SGN C   2      10.974  14.958  24.6820  0.00  0.00     0.000 O
ATOM     28  HD  SGN C   2      10.527  15.690  24.8070  0.00  0.00     0.000 HD
BRANCH 21 30
ATOM     28   N  SGN C   2       9.998  11.859  26.1780  0.00  0.00     0.000 N
ATOM     30  HD  SGN C   2       9.272  11.736  25.7210  0.00  0.00     0.000 HD
ATOM     30   S  SGN C   2       8.785  12.482  27.0160  0.00  0.00     0.000 S
ATOM     31   O  SGN C   2       8.209  13.469  26.1660  0.00  0.00     0.000 OA
ATOM     32   O  SGN C   2       7.989  11.421  27.5100  0.00  0.00     0.000 OA
ATOM     33   O  SGN C   2       9.480  13.148  28.2520  0.00  0.00     0.000 OA
ENDBRANCH 21 30
BRANCH 24 34
ATOM     34   C  SGN C   2      15.163  12.287  24.6880  0.00  0.00     0.000 C
ATOM     35   O  SGN C   2      15.523  11.008  25.2410  0.00  0.00     0.000 O
ATOM     36   S  SGN C   2      16.942  10.905  25.9640  0.00  0.00     0.000 S
ATOM     37   O  SGN C   2      16.933  11.970  26.9480  0.00  0.00     0.000 OA
ATOM     38   O  SGN C   2      16.986   9.585  26.5470  0.00  0.00     0.000 OA
ATOM     39   O  SGN C   2      17.892  11.101  24.8970  0.00  0.00     0.000 OA
ENDBRANCH 24 34
BRANCH 20 40
ATOM     40  O4  IDS C   3      11.393  10.656  24.3130  0.00  0.00     0.000 O
BRANCH 40 44
ATOM     41  C1  IDS C   3       9.777   8.278  22.2740  0.00  0.00     0.000 C
ATOM     42  C2  IDS C   3       9.451   8.409  23.7590  0.00  0.00     0.000 C
ATOM     43  C3  IDS C   3      10.730   8.352  24.5910  0.00  0.00     0.000 C
ATOM     44  C4  IDS C   3      11.789   9.306  24.0610  0.00  0.00     0.000 C
ATOM     45  C5  IDS C   3      11.976   9.093  22.5440  0.00  0.00     0.000 C
ATOM     46  O5  IDS C   3      10.722   9.269  21.8800  0.00  0.00     0.000 O
ATOM     47   O  IDS C   3      11.234   7.019  24.5920  0.00  0.00     0.000 O
ATOM     49  HD  IDS C   3      10.674   7.628  24.8470  0.00  0.00     0.000 HD
BRANCH 42 49
ATOM     49   O  IDS C   3       8.773   9.700  24.0200  0.00  0.00     0.000 O
ATOM     50   S  IDS C   3       7.193   9.729  24.2840  0.00  0.00     0.000 S
ATOM     51   O  IDS C   3       7.066   9.147  25.6020  0.00  0.00     0.000 OA
ATOM     52   O  IDS C   3       6.518   8.947  23.2610  0.00  0.00     0.000 OA
ATOM     53   O  IDS C   3       6.808  11.123  24.2440  0.00  0.00     0.000 OA
ENDBRANCH 42 49
BRANCH 45 54
ATOM     54   C  IDS C   3      12.993  10.039  21.9240  0.00  0.00     0.000 C
ATOM     55   O  IDS C   3      12.620  10.928  21.2040  0.00  0.00     0.000 OA
ATOM     56   O  IDS C   3      14.179   9.883  22.1440  0.00  0.00     0.000 OA
ENDBRANCH 45 54
BRANCH 41 57
ATOM     57  O4  SGN C   4       9.991   6.979  22.0330  0.00  0.00     0.000 O
BRANCH 57 61
ATOM     58  C1  SGN C   4      10.017   4.448  18.6980  0.00  0.00     0.000 C
ATOM     59  C2  SGN C   4      10.656   5.835  18.5190  0.00  0.00     0.000 C
ATOM     60  C3  SGN C   4      10.952   6.489  19.8750  0.00  0.00     0.000 C
ATOM     61  C4  SGN C   4       9.686   6.511  20.7150  0.00  0.00     0.000 C
ATOM     62  C5  SGN C   4       9.092   5.108  20.8270  0.00  0.00     0.000 C
ATOM     63  O5  SGN C   4       8.863   4.549  19.5200  0.00  0.00     0.000 O
BRANCH 59 66
ATOM     64   N  SGN C   4      11.270   5.760  17.1890  0.00  0.00     0.000 N
ATOM     66  HD  SGN C   4      11.049   5.608  18.0120  0.00  0.00     0.000 HD
ATOM     66   O  SGN C   4      13.105   6.035  15.6110  0.00  0.00     0.000 OA
ATOM     67   O  SGN C   4      12.714   7.733  17.3450  0.00  0.00     0.000 OA
ATOM     68   S  SGN C   4      12.798   6.208  16.9900  0.00  0.00     0.000 S
ATOM     69   O  SGN C   4      13.588   5.550  17.9670  0.00  0.00     0.000 OA
ENDBRANCH 59 66
BRANCH 62 70
ATOM     70   C  SGN C   4       7.765   5.124  21.5420  0.00  0.00     0.000 C
ATOM     71   S  SGN C   4       5.493   3.945  21.6900  0.00  0.00     0.000 S
ATOM     72   O  SGN C   4       5.594   3.963  23.1360  0.00  0.00     0.000 OA
ATOM     73   O  SGN C   4       4.857   5.127  21.1440  0.00  0.00     0.000 OA
ATOM     74   O  SGN C   4       4.970   2.705  21.1630  0.00  0.00     0.000 OA
ATOM     75   O  SGN C   4       6.996   3.970  21.1790  0.00  0.00     0.000 O
ENDBRANCH 62 70
ENDBRANCH 57 61
ENDBRANCH 41 57
ENDBRANCH 40 44
ENDBRANCH 20 40
ENDBRANCH 19 23
ENDBRANCH 1 19
TORSDOF 14
ENDMDL
MODEL 18
REMARK VINA RESULT:      -3.3      4.190      8.217
ROOT
ATOM      1  C1  IDS C   1      15.861  12.277  33.0620  0.00  0.00     0.000 C
ATOM      2  C2  IDS C   1      15.449  11.712  34.4100  0.00  0.00     0.000 C
ATOM      3  C3  IDS C   1      15.621  10.198  34.4370  0.00  0.00     0.000 C
ATOM      4  C4  IDS C   1      17.020   9.792  33.9740  0.00  0.00     0.000 C
ATOM      5  C5  IDS C   1      17.368  10.496  32.6470  0.00  0.00     0.000 C
ATOM      6  O5  IDS C   1      17.208  11.905  32.7740  0.00  0.00     0.000 O
ATOM      7   O  IDS C   1      14.625   9.591  33.6100  0.00  0.00     0.000 O
ATOM      9  HD  IDS C   1      15.251   8.994  33.5710  0.00  0.00     0.000 HD
ATOM      9   O  IDS C   1      17.972  10.172  34.9790  0.00  0.00     0.000 O
ATOM     11  HD  IDS C   1      18.598   9.575  34.9400  0.00  0.00     0.000 HD
ENDROOT
BRANCH 2 11
ATOM     11   O  IDS C   1      16.297  12.279  35.4820  0.00  0.00     0.000 O
ATOM     12   S  IDS C   1      15.648  13.131  36.6680  0.00  0.00     0.000 S
ATOM     13   O  IDS C   1      16.486  12.780  37.7930  0.00  0.00     0.000 OA
ATOM     14   O  IDS C   1      14.272  12.734  36.8450  0.00  0.00     0.000 OA
ATOM     15   O  IDS C   1      15.794  14.503  36.2500  0.00  0.00     0.000 OA
ENDBRANCH 2 11
BRANCH 5 16
ATOM     16   C  IDS C   1      18.789  10.232  32.1830  0.00  0.00     0.000 C
ATOM     17   O  IDS C   1      19.140  10.657  31.1030  0.00  0.00     0.000 OA
ATOM     18   O  IDS C   1      19.551   9.600  32.8620  0.00  0.00     0.000 OA
ENDBRANCH 5 16
BRANCH 1 19
ATOM     19  O4  SGN C   2      15.004  12.206  32.0400  0.00  0.00     0.000 O
BRANCH 19 23
ATOM     20  C1  SGN C   2      13.559  14.137  28.6330  0.00  0.00     0.000 C
ATOM     21  C2  SGN C   2      14.995  13.604  28.5600  0.00  0.00     0.000 C
ATOM     22  C3  SGN C   2      15.219  12.575  29.6660  0.00  0.00     0.000 C
ATOM     23  C4  SGN C   2      14.911  13.202  31.0200  0.00  0.00     0.000 C
ATOM     24  C5  SGN C   2      13.499  13.795  31.0090  0.00  0.00     0.000 C
ATOM     25  O5  SGN C   2      13.366  14.717  29.9120  0.00  0.00     0.000 O
ATOM     26   O  SGN C   2      16.553  12.081  29.6230  0.00  0.00     0.000 O
ATOM     28  HD  SGN C   2      17.355  11.784  29.4860  0.00  0.00     0.000 HD
BRANCH 21 30
ATOM     28   N  SGN C   2      14.793  14.028  27.1690  0.00  0.00     0.000 N
ATOM     30  HD  SGN C   2      14.620  13.418  26.5790  0.00  0.00     0.000 HD
ATOM     30   S  SGN C   2      15.997  14.018  26.1150  0.00  0.00     0.000 S
ATOM     31   O  SGN C   2      16.529  12.698  26.1640  0.00  0.00     0.000 OA
ATOM     32   O  SGN C   2      15.525  14.546  24.8890  0.00  0.00     0.000 OA
ATOM     33   O  SGN C   2      17.019  15.053  26.6960  0.00  0.00     0.000 OA
ENDBRANCH 21 30
BRANCH 24 34
ATOM     34   C  SGN C   2      13.157  14.569  32.2600  0.00  0.00     0.000 C
ATOM     35   O  SGN C   2      12.286  13.771  33.0800  0.00  0.00     0.000 O
ATOM     36   S  SGN C   2      11.430  14.536  34.1890  0.00  0.00     0.000 S
ATOM     37   O  SGN C   2      10.732  15.578  33.4620  0.00  0.00     0.000 OA
ATOM     38   O  SGN C   2      10.549  13.543  34.7560  0.00  0.00     0.000 OA
ATOM     39   O  SGN C   2      12.420  15.031  35.1140  0.00  0.00     0.000 OA
ENDBRANCH 24 34
BRANCH 20 40
ATOM     40  O4  IDS C   3      12.571  13.280  28.3870  0.00  0.00     0.000 O
BRANCH 40 44
ATOM     41  C1  IDS C   3      10.210  11.225  26.7660  0.00  0.00     0.000 C
ATOM     42  C2  IDS C   3      11.258  12.008  25.9810  0.00  0.00     0.000 C
ATOM     43  C3  IDS C   3      11.235  13.480  26.3860  0.00  0.00     0.000 C
ATOM     44  C4  IDS C   3      11.280  13.648  27.8970  0.00  0.00     0.000 C
ATOM     45  C5  IDS C   3      10.201  12.763  28.5560  0.00  0.00     0.000 C
ATOM     46  O5  IDS C   3      10.398  11.402  28.1670  0.00  0.00     0.000 O
ATOM     47   O  IDS C   3      10.061  14.096  25.8630  0.00  0.00     0.000 O
ATOM     49  HD  IDS C   3      10.857  13.766  25.7790  0.00  0.00     0.000 HD
BRANCH 42 49
ATOM     49   O  IDS C   3      12.609  11.463  26.2510  0.00  0.00     0.000 O
ATOM     50   S  IDS C   3      13.415  10.722  25.0810  0.00  0.00     0.000 S
ATOM     51   O  IDS C   3      13.790  11.804  24.1970  0.00  0.00     0.000 OA
ATOM     52   O  IDS C   3      12.546   9.752  24.4360  0.00  0.00     0.000 OA
ATOM     53   O  IDS C   3      14.553  10.094  25.7170  0.00  0.00     0.000 OA
ENDBRANCH 42 49
BRANCH 45 54
ATOM     54   C  IDS C   3      10.203  12.842  30.0750  0.00  0.00     0.000 C
ATOM     55   O  IDS C   3       9.950  13.886  30.6180  0.00  0.00     0.000 OA
ATOM     56   O  IDS C   3      10.477  11.857  30.7330  0.00  0.00     0.000 OA
ENDBRANCH 45 54
BRANCH 41 57
ATOM     57  O4  SGN C   4       9.027  11.466  26.1880  0.00  0.00     0.000 O
BRANCH 57 61
ATOM     58  C1  SGN C   4       5.210   9.746  26.2160  0.00  0.00     0.000 C
ATOM     59  C2  SGN C   4       5.955   9.797  27.5590  0.00  0.00     0.000 C
ATOM     60  C3  SGN C   4       7.124  10.791  27.5080  0.00  0.00     0.000 C
ATOM     61  C4  SGN C   4       8.024  10.455  26.3310  0.00  0.00     0.000 C
ATOM     62  C5  SGN C   4       7.214  10.392  25.0370  0.00  0.00     0.000 C
ATOM     63  O5  SGN C   4       6.123   9.461  25.1660  0.00  0.00     0.000 O
BRANCH 59 66
ATOM     64   N  SGN C   4       4.943   9.354  28.5240  0.00  0.00     0.000 N
ATOM     66  HD  SGN C   4       5.370   9.785  27.9060  0.00  0.00     0.000 HD
ATOM     66   O  SGN C   4       3.672   9.532  30.5940  0.00  0.00     0.000 OA
ATOM     67   O  SGN C   4       6.075  10.050  30.5820  0.00  0.00     0.000 OA
ATOM     68   S  SGN C   4       4.691  10.203  29.8620  0.00  0.00     0.000 S
ATOM     69   O  SGN C   4       4.507  11.563  29.5000  0.00  0.00     0.000 OA
ENDBRANCH 59 66
BRANCH 62 70
ATOM     70   C  SGN C   4       8.059   9.930  23.8760  0.00  0.00     0.000 C
ATOM     71   S  SGN C   4       8.717   7.867  22.5040  0.00  0.00     0.000 S
ATOM     72   O  SGN C   4       8.533   8.635  21.2880  0.00  0.00     0.000 OA
ATOM     73   O  SGN C   4      10.060   7.953  23.0400  0.00  0.00     0.000 OA
ATOM     74   O  SGN C   4       8.210   6.517  22.4160  0.00  0.00     0.000 OA
ATOM     75   O  SGN C   4       7.766   8.562  23.5690  0.00  0.00     0.000 O
ENDBRANCH 62 70
ENDBRANCH 57 61
ENDBRANCH 41 57
ENDBRANCH 40 44
ENDBRANCH 20 40
ENDBRANCH 19 23
ENDBRANCH 1 19
TORSDOF 14
ENDMDL
MODEL 19
REMARK VINA RESULT:      -3.3      3.837      8.376
ROOT
ATOM      1  C1  IDS C   1      15.381  14.996  23.9260  0.00  0.00     0.000 C
ATOM      2  C2  IDS C   1      16.700  15.186  23.1970  0.00  0.00     0.000 C
ATOM      3  C3  IDS C   1      16.465  15.672  21.7720  0.00  0.00     0.000 C
ATOM      4  C4  IDS C   1      15.541  16.889  21.7490  0.00  0.00     0.000 C
ATOM      5  C5  IDS C   1      14.281  16.619  22.5950  0.00  0.00     0.000 C
ATOM      6  O5  IDS C   1      14.642  16.216  23.9120  0.00  0.00     0.000 O
ATOM      7   O  IDS C   1      15.912  14.610  20.9920  0.00  0.00     0.000 O
ATOM      9  HD  IDS C   1      15.600  15.298  20.5690  0.00  0.00     0.000 HD
ATOM      9   O  IDS C   1      16.244  18.019  22.2890  0.00  0.00     0.000 O
ATOM     11  HD  IDS C   1      15.931  18.707  21.8660  0.00  0.00     0.000 HD
ENDROOT
BRANCH 2 11
ATOM     11   O  IDS C   1      17.524  16.202  23.8880  0.00  0.00     0.000 O
ATOM     12   S  IDS C   1      19.051  15.903  24.2510  0.00  0.00     0.000 S
ATOM     13   O  IDS C   1      19.664  17.203  24.0920  0.00  0.00     0.000 OA
ATOM     14   O  IDS C   1      19.575  14.917  23.3360  0.00  0.00     0.000 OA
ATOM     15   O  IDS C   1      19.016  15.447  25.6180  0.00  0.00     0.000 OA
ENDBRANCH 2 11
BRANCH 5 16
ATOM     16   C  IDS C   1      13.368  17.825  22.7140  0.00  0.00     0.000 C
ATOM     17   O  IDS C   1      12.423  17.771  23.4730  0.00  0.00     0.000 OA
ATOM     18   O  IDS C   1      13.564  18.812  22.0600  0.00  0.00     0.000 OA
ENDBRANCH 5 16
BRANCH 1 19
ATOM     19  O4  SGN C   2      14.675  13.883  23.7090  0.00  0.00     0.000 O
BRANCH 19 23
ATOM     20  C1  SGN C   2      11.925  11.191  25.3280  0.00  0.00     0.000 C
ATOM     21  C2  SGN C   2      11.423  12.619  25.0850  0.00  0.00     0.000 C
ATOM     22  C3  SGN C   2      12.361  13.338  24.1180  0.00  0.00     0.000 C
ATOM     23  C4  SGN C   2      13.781  13.318  24.6700  0.00  0.00     0.000 C
ATOM     24  C5  SGN C   2      14.200  11.878  24.9770  0.00  0.00     0.000 C
ATOM     25  O5  SGN C   2      13.239  11.267  25.8570  0.00  0.00     0.000 O
ATOM     26   O  SGN C   2      11.918  14.671  23.8930  0.00  0.00     0.000 O
ATOM     28  HD  SGN C   2      11.545  15.441  23.7580  0.00  0.00     0.000 HD
BRANCH 21 30
ATOM     28   N  SGN C   2      10.162  11.949  25.4280  0.00  0.00     0.000 N
ATOM     30  HD  SGN C   2       9.610  11.769  24.7860  0.00  0.00     0.000 HD
ATOM     30   S  SGN C   2       8.824  12.785  25.6910  0.00  0.00     0.000 S
ATOM     31   O  SGN C   2       8.658  13.604  24.5380  0.00  0.00     0.000 OA
ATOM     32   O  SGN C   2       7.800  11.885  26.0730  0.00  0.00     0.000 OA
ATOM     33   O  SGN C   2       9.160  13.656  26.9500  0.00  0.00     0.000 OA
ENDBRANCH 21 30
BRANCH 24 34
ATOM     34   C  SGN C   2      15.539  11.769  25.6670  0.00  0.00     0.000 C
ATOM     35   O  SGN C   2      16.442  11.034  24.8220  0.00  0.00     0.000 O
ATOM     36   S  SGN C   2      17.729  10.396  25.5180  0.00  0.00     0.000 S
ATOM     37   O  SGN C   2      17.203   9.605  26.6130  0.00  0.00     0.000 OA
ATOM     38   O  SGN C   2      18.372   9.605  24.4960  0.00  0.00     0.000 OA
ATOM     39   O  SGN C   2      18.501  11.539  25.9390  0.00  0.00     0.000 OA
ENDBRANCH 24 34
BRANCH 20 40
ATOM     40  O4  IDS C   3      11.917  10.352  24.2950  0.00  0.00     0.000 O
BRANCH 40 44
ATOM     41  C1  IDS C   3      11.142   8.128  21.6720  0.00  0.00     0.000 C
ATOM     42  C2  IDS C   3      10.052   8.885  22.4240  0.00  0.00     0.000 C
ATOM     43  C3  IDS C   3      10.209   8.686  23.9300  0.00  0.00     0.000 C
ATOM     44  C4  IDS C   3      11.634   8.954  24.3880  0.00  0.00     0.000 C
ATOM     45  C5  IDS C   3      12.626   8.163  23.5090  0.00  0.00     0.000 C
ATOM     46  O5  IDS C   3      12.433   8.515  22.1370  0.00  0.00     0.000 O
ATOM     47   O  IDS C   3       9.831   7.355  24.2730  0.00  0.00     0.000 O
ATOM     49  HD  IDS C   3       9.648   8.169  24.0420  0.00  0.00     0.000 HD
BRANCH 42 49
ATOM     49   O  IDS C   3      10.139  10.334  22.1270  0.00  0.00     0.000 O
ATOM     50   S  IDS C   3       8.905  11.075  21.4240  0.00  0.00     0.000 S
ATOM     51   O  IDS C   3       7.909  11.129  22.4710  0.00  0.00     0.000 OA
ATOM     52   O  IDS C   3       8.466  10.300  20.2750  0.00  0.00     0.000 OA
ATOM     53   O  IDS C   3       9.393  12.384  21.0420  0.00  0.00     0.000 OA
ENDBRANCH 42 49
BRANCH 45 54
ATOM     54   C  IDS C   3      14.081   8.405  23.8750  0.00  0.00     0.000 C
ATOM     55   O  IDS C   3      14.830   8.882  23.0620  0.00  0.00     0.000 OA
ATOM     56   O  IDS C   3      14.488   8.102  24.9800  0.00  0.00     0.000 OA
ENDBRANCH 45 54
BRANCH 41 57
ATOM     57  O4  SGN C   4      10.774   6.841  21.6390  0.00  0.00     0.000 O
BRANCH 57 61
ATOM     58  C1  SGN C   4      11.697   3.383  19.4670  0.00  0.00     0.000 C
ATOM     59  C2  SGN C   4      12.847   4.032  20.2550  0.00  0.00     0.000 C
ATOM     60  C3  SGN C   4      12.313   5.012  21.3080  0.00  0.00     0.000 C
ATOM     61  C4  SGN C   4      11.393   6.022  20.6420  0.00  0.00     0.000 C
ATOM     62  C5  SGN C   4      10.295   5.308  19.8540  0.00  0.00     0.000 C
ATOM     63  O5  SGN C   4      10.867   4.389  18.9050  0.00  0.00     0.000 O
BRANCH 59 66
ATOM     64   N  SGN C   4      13.957   3.083  20.1220  0.00  0.00     0.000 N
ATOM     66  HD  SGN C   4      13.185   3.442  20.2790  0.00  0.00     0.000 HD
ATOM     66   O  SGN C   4      15.734   1.663  20.9930  0.00  0.00     0.000 OA
ATOM     67   O  SGN C   4      15.340   3.880  21.9800  0.00  0.00     0.000 OA
ATOM     68   S  SGN C   4      14.712   2.551  21.4330  0.00  0.00     0.000 S
ATOM     69   O  SGN C   4      13.738   2.088  22.3550  0.00  0.00     0.000 OA
ENDBRANCH 59 66
BRANCH 62 70
ATOM     70   C  SGN C   4       9.449   6.284  19.0750  0.00  0.00     0.000 C
ATOM     71   S  SGN C   4       8.181   6.603  16.8700  0.00  0.00     0.000 S
ATOM     72   O  SGN C   4       7.058   7.145  17.6110  0.00  0.00     0.000 OA
ATOM     73   O  SGN C   4       9.146   7.608  16.4740  0.00  0.00     0.000 OA
ATOM     74   O  SGN C   4       7.791   5.715  15.7990  0.00  0.00     0.000 OA
ATOM     75   O  SGN C   4       8.925   5.652  17.9010  0.00  0.00     0.000 O
ENDBRANCH 62 70
ENDBRANCH 57 61
ENDBRANCH 41 57
ENDBRANCH 40 44
ENDBRANCH 20 40
ENDBRANCH 19 23
ENDBRANCH 1 19
TORSDOF 14
ENDMDL
MODEL 20
REMARK VINA RESULT:      -3.0     12.755     16.708
ROOT
ATOM      1  C1  IDS C   1      16.342   8.251  37.3750  0.00  0.00     0.000 C
ATOM      2  C2  IDS C   1      15.830   9.600  36.9020  0.00  0.00     0.000 C
ATOM      3  C3  IDS C   1      14.853   9.433  35.7450  0.00  0.00     0.000 C
ATOM      4  C4  IDS C   1      13.761   8.419  36.0880  0.00  0.00     0.000 C
ATOM      5  C5  IDS C   1      14.389   7.126  36.6450  0.00  0.00     0.000 C
ATOM      6  O5  IDS C   1      15.243   7.421  37.7450  0.00  0.00     0.000 O
ATOM      7   O  IDS C   1      15.565   9.025  34.5750  0.00  0.00     0.000 O
ATOM      9  HD  IDS C   1      14.783   8.690  34.4120  0.00  0.00     0.000 HD
ATOM      9   O  IDS C   1      12.888   8.989  37.0760  0.00  0.00     0.000 O
ATOM     11  HD  IDS C   1      12.107   8.655  36.9120  0.00  0.00     0.000 HD
ENDROOT
BRANCH 2 11
ATOM     11   O  IDS C   1      15.114  10.289  37.9990  0.00  0.00     0.000 O
ATOM     12   S  IDS C   1      15.876  11.332  38.9400  0.00  0.00     0.000 S
ATOM     13   O  IDS C   1      14.842  12.303  39.2210  0.00  0.00     0.000 OA
ATOM     14   O  IDS C   1      16.996  11.893  38.2230  0.00  0.00     0.000 OA
ATOM     15   O  IDS C   1      16.269  10.561  40.0930  0.00  0.00     0.000 OA
ENDBRANCH 2 11
BRANCH 5 16
ATOM     16   C  IDS C   1      13.360   6.114  37.1160  0.00  0.00     0.000 C
ATOM     17   O  IDS C   1      13.580   5.485  38.1290  0.00  0.00     0.000 OA
ATOM     18   O  IDS C   1      12.352   5.925  36.4920  0.00  0.00     0.000 OA
ENDBRANCH 5 16
BRANCH 1 19
ATOM     19  O4  SGN C   2      17.322   7.653  36.6910  0.00  0.00     0.000 O
BRANCH 19 23
ATOM     20  C1  SGN C   2      21.233   6.248  37.0830  0.00  0.00     0.000 C
ATOM     21  C2  SGN C   2      20.119   5.195  37.1270  0.00  0.00     0.000 C
ATOM     22  C3  SGN C   2      18.834   5.779  36.5480  0.00  0.00     0.000 C
ATOM     23  C4  SGN C   2      18.455   7.043  37.3110  0.00  0.00     0.000 C
ATOM     24  C5  SGN C   2      19.631   8.023  37.3100  0.00  0.00     0.000 C
ATOM     25  O5  SGN C   2      20.807   7.375  37.8290  0.00  0.00     0.000 O
ATOM     26   O  SGN C   2      17.784   4.819  36.5960  0.00  0.00     0.000 O
ATOM     28  HD  SGN C   2      17.223   4.159  36.5990  0.00  0.00     0.000 HD
BRANCH 21 30
ATOM     28   N  SGN C   2      20.379   3.884  36.5170  0.00  0.00     0.000 N
ATOM     30  HD  SGN C   2      19.827   3.240  36.6890  0.00  0.00     0.000 HD
ATOM     30   S  SGN C   2      21.187   2.749  37.3030  0.00  0.00     0.000 S
ATOM     31   O  SGN C   2      20.510   2.597  38.5470  0.00  0.00     0.000 OA
ATOM     32   O  SGN C   2      21.347   1.635  36.4440  0.00  0.00     0.000 OA
ATOM     33   O  SGN C   2      22.609   3.372  37.5150  0.00  0.00     0.000 OA
ENDBRANCH 21 30
BRANCH 24 34
ATOM     34   C  SGN C   2      19.403   9.245  38.1680  0.00  0.00     0.000 C
ATOM     35   O  SGN C   2      20.621   9.559  38.8670  0.00  0.00     0.000 O
ATOM     36   S  SGN C   2      20.496  10.489  40.1580  0.00  0.00     0.000 S
ATOM     37   O  SGN C   2      19.511   9.831  40.9940  0.00  0.00     0.000 OA
ATOM     38   O  SGN C   2      21.815  10.522  40.7430  0.00  0.00     0.000 OA
ATOM     39   O  SGN C   2      20.061  11.760  39.6320  0.00  0.00     0.000 OA
ENDBRANCH 24 34
BRANCH 20 40
ATOM     40  O4  IDS C   3      21.652   6.649  35.8850  0.00  0.00     0.000 O
BRANCH 40 44
ATOM     41  C1  IDS C   3      23.575   6.770  32.9330  0.00  0.00     0.000 C
ATOM     42  C2  IDS C   3      23.855   5.743  34.0250  0.00  0.00     0.000 C
ATOM     43  C3  IDS C   3      24.003   6.433  35.3790  0.00  0.00     0.000 C
ATOM     44  C4  IDS C   3      22.853   7.390  35.6520  0.00  0.00     0.000 C
ATOM     45  C5  IDS C   3      22.656   8.333  34.4460  0.00  0.00     0.000 C
ATOM     46  O5  IDS C   3      22.435   7.557  33.2660  0.00  0.00     0.000 O
ATOM     47   O  IDS C   3      25.241   7.139  35.4170  0.00  0.00     0.000 O
ATOM     49  HD  IDS C   3      24.771   6.412  35.4410  0.00  0.00     0.000 HD
BRANCH 42 49
ATOM     49   O  IDS C   3      22.739   4.771  34.1090  0.00  0.00     0.000 O
ATOM     50   S  IDS C   3      22.941   3.282  33.5520  0.00  0.00     0.000 S
ATOM     51   O  IDS C   3      23.825   2.680  34.5240  0.00  0.00     0.000 OA
ATOM     52   O  IDS C   3      23.527   3.338  32.2230  0.00  0.00     0.000 OA
ATOM     53   O  IDS C   3      21.624   2.681  33.5400  0.00  0.00     0.000 OA
ENDBRANCH 42 49
BRANCH 45 54
ATOM     54   C  IDS C   3      21.496   9.300  34.6200  0.00  0.00     0.000 C
ATOM     55   O  IDS C   3      20.503   9.167  33.9520  0.00  0.00     0.000 OA
ATOM     56   O  IDS C   3      21.581  10.212  35.4190  0.00  0.00     0.000 OA
ENDBRANCH 45 54
BRANCH 41 57
ATOM     57  O4  SGN C   4      24.746   7.341  32.6230  0.00  0.00     0.000 O
BRANCH 57 61
ATOM     58  C1  SGN C   4      26.179  10.329  30.0640  0.00  0.00     0.000 C
ATOM     59  C2  SGN C   4      25.353  10.793  31.2750  0.00  0.00     0.000 C
ATOM     60  C3  SGN C   4      25.243   9.684  32.3300  0.00  0.00     0.000 C
ATOM     61  C4  SGN C   4      24.706   8.418  31.6820  0.00  0.00     0.000 C
ATOM     62  C5  SGN C   4      25.556   8.033  30.4720  0.00  0.00     0.000 C
ATOM     63  O5  SGN C   4      25.634   9.127  29.5380  0.00  0.00     0.000 O
BRANCH 59 66
ATOM     64   N  SGN C   4      25.570  12.031  32.0300  0.00  0.00     0.000 N
ATOM     66  HD  SGN C   4      25.219  11.398  31.5550  0.00  0.00     0.000 HD
ATOM     66   O  SGN C   4      25.941  14.430  32.2340  0.00  0.00     0.000 OA
ATOM     67   O  SGN C   4      27.062  13.163  30.4510  0.00  0.00     0.000 OA
ATOM     68   S  SGN C   4      25.738  13.423  31.2490  0.00  0.00     0.000 S
ATOM     69   O  SGN C   4      24.664  13.553  30.3310  0.00  0.00     0.000 OA
ENDBRANCH 59 66
BRANCH 62 70
ATOM     70   C  SGN C   4      24.967   6.859  29.7320  0.00  0.00     0.000 C
ATOM     71   S  SGN C   4      22.860   6.033  28.5280  0.00  0.00     0.000 S
ATOM     72   O  SGN C   4      23.690   5.527  27.4530  0.00  0.00     0.000 OA
ATOM     73   O  SGN C   4      22.645   5.070  29.5890  0.00  0.00     0.000 OA
ATOM     74   O  SGN C   4      21.649   6.675  28.0690  0.00  0.00     0.000 OA
ATOM     75   O  SGN C   4      23.701   7.219  29.1650  0.00  0.00     0.000 O
ENDBRANCH 62 70
ENDBRANCH 57 61
ENDBRANCH 41 57
ENDBRANCH 40 44
ENDBRANCH 20 40
ENDBRANCH 19 23
ENDBRANCH 1 19
TORSDOF 14
ENDMDL
MODEL 21
REMARK VINA RESULT:      -2.8     12.774     19.663
ROOT
ATOM      1  C1  IDS C   1      19.930   4.916  36.0230  0.00  0.00     0.000 C
ATOM      2  C2  IDS C   1      20.498   4.087  37.1600  0.00  0.00     0.000 C
ATOM      3  C3  IDS C   1      19.602   4.168  38.3890  0.00  0.00     0.000 C
ATOM      4  C4  IDS C   1      18.148   3.855  38.0340  0.00  0.00     0.000 C
ATOM      5  C5  IDS C   1      17.707   4.684  36.8110  0.00  0.00     0.000 C
ATOM      6  O5  IDS C   1      18.604   4.482  35.7230  0.00  0.00     0.000 O
ATOM      7   O  IDS C   1      19.706   5.470  38.9690  0.00  0.00     0.000 O
ATOM      9  HD  IDS C   1      18.910   5.244  39.2250  0.00  0.00     0.000 HD
ATOM      9   O  IDS C   1      18.033   2.457  37.7290  0.00  0.00     0.000 O
ATOM     11  HD  IDS C   1      17.237   2.231  37.9850  0.00  0.00     0.000 HD
ENDROOT
BRANCH 2 11
ATOM     11   O  IDS C   1      20.585   2.664  36.7610  0.00  0.00     0.000 O
ATOM     12   S  IDS C   1      21.979   2.032  36.3020  0.00  0.00     0.000 S
ATOM     13   O  IDS C   1      21.881   0.678  36.8010  0.00  0.00     0.000 OA
ATOM     14   O  IDS C   1      23.062   2.776  36.8990  0.00  0.00     0.000 OA
ATOM     15   O  IDS C   1      21.959   2.115  34.8620  0.00  0.00     0.000 OA
ENDBRANCH 2 11
BRANCH 5 16
ATOM     16   C  IDS C   1      16.310   4.342  36.3270  0.00  0.00     0.000 C
ATOM     17   O  IDS C   1      15.392   5.076  36.6260  0.00  0.00     0.000 OA
ATOM     18   O  IDS C   1      16.109   3.356  35.6730  0.00  0.00     0.000 OA
ENDBRANCH 5 16
BRANCH 1 19
ATOM     19  O4  SGN C   2      20.125   6.238  36.0230  0.00  0.00     0.000 O
BRANCH 19 23
ATOM     20  C1  SGN C   2      20.356   9.656  33.6380  0.00  0.00     0.000 C
ATOM     21  C2  SGN C   2      18.948   9.148  33.9710  0.00  0.00     0.000 C
ATOM     22  C3  SGN C   2      19.012   8.199  35.1650  0.00  0.00     0.000 C
ATOM     23  C4  SGN C   2      19.975   7.056  34.8620  0.00  0.00     0.000 C
ATOM     24  C5  SGN C   2      21.337   7.620  34.4510  0.00  0.00     0.000 C
ATOM     25  O5  SGN C   2      21.176   8.535  33.3510  0.00  0.00     0.000 O
ATOM     26   O  SGN C   2      17.715   7.705  35.4790  0.00  0.00     0.000 O
ATOM     28  HD  SGN C   2      16.889   7.506  35.6450  0.00  0.00     0.000 HD
BRANCH 21 30
ATOM     28   N  SGN C   2      18.406   9.879  32.8180  0.00  0.00     0.000 N
ATOM     30  HD  SGN C   2      18.662  10.698  32.7000  0.00  0.00     0.000 HD
ATOM     30   S  SGN C   2      17.117  10.815  32.9620  0.00  0.00     0.000 S
ATOM     31   O  SGN C   2      17.419  11.711  34.0270  0.00  0.00     0.000 OA
ATOM     32   O  SGN C   2      16.785  11.323  31.6820  0.00  0.00     0.000 OA
ATOM     33   O  SGN C   2      15.973   9.826  33.3730  0.00  0.00     0.000 OA
ENDBRANCH 21 30
BRANCH 24 34
ATOM     34   C  SGN C   2      22.316   6.566  33.9880  0.00  0.00     0.000 C
ATOM     35   O  SGN C   2      23.314   6.376  35.0050  0.00  0.00     0.000 O
ATOM     36   S  SGN C   2      24.682   5.684  34.5590  0.00  0.00     0.000 S
ATOM     37   O  SGN C   2      25.151   6.481  33.4410  0.00  0.00     0.000 OA
ATOM     38   O  SGN C   2      25.546   5.750  35.7130  0.00  0.00     0.000 OA
ATOM     39   O  SGN C   2      24.293   4.343  34.1990  0.00  0.00     0.000 OA
ENDBRANCH 24 34
BRANCH 20 40
ATOM     40  O4  IDS C   3      20.963  10.423  34.5400  0.00  0.00     0.000 O
BRANCH 40 44
ATOM     41  C1  IDS C   3      22.224  12.856  36.7580  0.00  0.00     0.000 C
ATOM     42  C2  IDS C   3      20.877  13.032  36.0610  0.00  0.00     0.000 C
ATOM     43  C3  IDS C   3      21.029  12.836  34.5550  0.00  0.00     0.000 C
ATOM     44  C4  IDS C   3      21.779  11.555  34.2270  0.00  0.00     0.000 C
ATOM     45  C5  IDS C   3      23.090  11.491  35.0380  0.00  0.00     0.000 C
ATOM     46  O5  IDS C   3      22.794  11.591  36.4320  0.00  0.00     0.000 O
ATOM     47   O  IDS C   3      21.714  13.956  33.9980  0.00  0.00     0.000 O
ATOM     49  HD  IDS C   3      21.013  13.575  34.3350  0.00  0.00     0.000 HD
BRANCH 42 49
ATOM     49   O  IDS C   3      19.905  12.039  36.5730  0.00  0.00     0.000 O
ATOM     50   S  IDS C   3      18.810  12.484  37.6540  0.00  0.00     0.000 S
ATOM     51   O  IDS C   3      17.898  13.304  36.8870  0.00  0.00     0.000 OA
ATOM     52   O  IDS C   3      19.459  13.224  38.7240  0.00  0.00     0.000 OA
ATOM     53   O  IDS C   3      18.201  11.261  38.1320  0.00  0.00     0.000 OA
ENDBRANCH 42 49
BRANCH 45 54
ATOM     54   C  IDS C   3      23.885  10.217  34.7980  0.00  0.00     0.000 C
ATOM     55   O  IDS C   3      24.194   9.522  35.7310  0.00  0.00     0.000 OA
ATOM     56   O  IDS C   3      24.220   9.915  33.6690  0.00  0.00     0.000 OA
ENDBRANCH 45 54
BRANCH 41 57
ATOM     57  O4  SGN C   4      22.908  13.993  36.5800  0.00  0.00     0.000 O
BRANCH 57 61
ATOM     58  C1  SGN C   4      25.760  16.256  38.6480  0.00  0.00     0.000 C
ATOM     59  C2  SGN C   4      26.068  14.762  38.4580  0.00  0.00     0.000 C
ATOM     60  C3  SGN C   4      25.185  14.148  37.3630  0.00  0.00     0.000 C
ATOM     61  C4  SGN C   4      23.724  14.428  37.6720  0.00  0.00     0.000 C
ATOM     62  C5  SGN C   4      23.497  15.925  37.8770  0.00  0.00     0.000 C
ATOM     63  O5  SGN C   4      24.374  16.436  38.8990  0.00  0.00     0.000 O
BRANCH 59 66
ATOM     64   N  SGN C   4      27.522  14.714  38.2760  0.00  0.00     0.000 N
ATOM     66  HD  SGN C   4      26.677  14.527  38.2670  0.00  0.00     0.000 HD
ATOM     66   O  SGN C   4      29.763  13.902  38.7810  0.00  0.00     0.000 OA
ATOM     67   O  SGN C   4      28.167  14.314  40.6050  0.00  0.00     0.000 OA
ATOM     68   S  SGN C   4      28.406  13.721  39.1740  0.00  0.00     0.000 S
ATOM     69   O  SGN C   4      27.830  12.426  39.1090  0.00  0.00     0.000 OA
ENDBRANCH 59 66
BRANCH 62 70
ATOM     70   C  SGN C   4      22.084  16.217  38.3170  0.00  0.00     0.000 C
ATOM     71   S  SGN C   4      20.026  17.657  37.8060  0.00  0.00     0.000 S
ATOM     72   O  SGN C   4      19.188  16.482  37.9400  0.00  0.00     0.000 OA
ATOM     73   O  SGN C   4      20.226  18.365  39.0550  0.00  0.00     0.000 OA
ATOM     74   O  SGN C   4      19.649  18.514  36.7050  0.00  0.00     0.000 OA
ATOM     75   O  SGN C   4      21.448  17.094  37.3800  0.00  0.00     0.000 O
ENDBRANCH 62 70
ENDBRANCH 57 61
ENDBRANCH 41 57
ENDBRANCH 40 44
ENDBRANCH 20 40
ENDBRANCH 19 23
ENDBRANCH 1 19
TORSDOF 14
ENDMDL
MODEL 22
REMARK VINA RESULT:      -2.7      9.619     13.867
ROOT
ATOM      1  C1  IDS C   1      16.284   5.010  21.3420  0.00  0.00     0.000 C
ATOM      2  C2  IDS C   1      14.837   5.347  21.0320  0.00  0.00     0.000 C
ATOM      3  C3  IDS C   1      14.222   4.298  20.1140  0.00  0.00     0.000 C
ATOM      4  C4  IDS C   1      14.446   2.888  20.6600  0.00  0.00     0.000 C
ATOM      5  C5  IDS C   1      15.930   2.688  21.0280  0.00  0.00     0.000 C
ATOM      6  O5  IDS C   1      16.363   3.708  21.9220  0.00  0.00     0.000 O
ATOM      7   O  IDS C   1      14.781   4.423  18.8060  0.00  0.00     0.000 O
ATOM      9  HD  IDS C   1      14.566   3.584  18.8090  0.00  0.00     0.000 HD
ATOM      9   O  IDS C   1      13.636   2.706  21.8320  0.00  0.00     0.000 O
ATOM     11  HD  IDS C   1      13.421   1.867  21.8340  0.00  0.00     0.000 HD
ENDROOT
BRANCH 2 11
ATOM     11   O  IDS C   1      14.041   5.377  22.2790  0.00  0.00     0.000 O
ATOM     12   S  IDS C   1      14.112   6.635  23.2610  0.00  0.00     0.000 S
ATOM     13   O  IDS C   1      12.762   6.701  23.7750  0.00  0.00     0.000 OA
ATOM     14   O  IDS C   1      14.487   7.808  22.5090  0.00  0.00     0.000 OA
ATOM     15   O  IDS C   1      15.088   6.264  24.2560  0.00  0.00     0.000 OA
ENDBRANCH 2 11
BRANCH 5 16
ATOM     16   C  IDS C   1      16.210   1.348  21.6850  0.00  0.00     0.000 C
ATOM     17   O  IDS C   1      16.045   1.239  22.8820  0.00  0.00     0.000 OA
ATOM     18   O  IDS C   1      16.602   0.416  21.0390  0.00  0.00     0.000 OA
ENDBRANCH 5 16
BRANCH 1 19
ATOM     19  O4  SGN C   2      17.227   5.306  20.4430  0.00  0.00     0.000 O
BRANCH 19 23
ATOM     20  C1  SGN C   2      21.245   6.289  19.8790  0.00  0.00     0.000 C
ATOM     21  C2  SGN C   2      20.949   4.862  20.3550  0.00  0.00     0.000 C
ATOM     22  C3  SGN C   2      19.483   4.525  20.0970  0.00  0.00     0.000 C
ATOM     23  C4  SGN C   2      18.592   5.553  20.7860  0.00  0.00     0.000 C
ATOM     24  C5  SGN C   2      18.986   6.964  20.3410  0.00  0.00     0.000 C
ATOM     25  O5  SGN C   2      20.389   7.176  20.5810  0.00  0.00     0.000 O
ATOM     26   O  SGN C   2      19.187   3.208  20.5480  0.00  0.00     0.000 O
ATOM     28  HD  SGN C   2      19.108   2.379  20.7840  0.00  0.00     0.000 HD
BRANCH 21 30
ATOM     28   N  SGN C   2      21.744   3.697  19.9440  0.00  0.00     0.000 N
ATOM     30  HD  SGN C   2      21.726   2.994  20.4490  0.00  0.00     0.000 HD
ATOM     30   S  SGN C   2      23.225   3.464  20.5030  0.00  0.00     0.000 S
ATOM     31   O  SGN C   2      23.103   3.512  21.9210  0.00  0.00     0.000 OA
ATOM     32   O  SGN C   2      23.765   2.314  19.8780  0.00  0.00     0.000 OA
ATOM     33   O  SGN C   2      24.031   4.697  19.9710  0.00  0.00     0.000 OA
ENDBRANCH 21 30
BRANCH 24 34
ATOM     34   C  SGN C   2      18.257   8.059  21.0830  0.00  0.00     0.000 C
ATOM     35   O  SGN C   2      19.137   8.620  22.0730  0.00  0.00     0.000 O
ATOM     36   S  SGN C   2      18.460   9.438  23.2650  0.00  0.00     0.000 S
ATOM     37   O  SGN C   2      17.478   8.530  23.8240  0.00  0.00     0.000 OA
ATOM     38   O  SGN C   2      19.532   9.756  24.1770  0.00  0.00     0.000 OA
ATOM     39   O  SGN C   2      17.888  10.592  22.6150  0.00  0.00     0.000 OA
ENDBRANCH 24 34
BRANCH 20 40
ATOM     40  O4  IDS C   3      21.153   6.534  18.5740  0.00  0.00     0.000 O
BRANCH 40 44
ATOM     41  C1  IDS C   3      22.203   6.634  15.2100  0.00  0.00     0.000 C
ATOM     42  C2  IDS C   3      23.118   6.117  16.3160  0.00  0.00     0.000 C
ATOM     43  C3  IDS C   3      23.205   7.134  17.4520  0.00  0.00     0.000 C
ATOM     44  C4  IDS C   3      21.827   7.598  17.8980  0.00  0.00     0.000 C
ATOM     45  C5  IDS C   3      21.000   8.043  16.6730  0.00  0.00     0.000 C
ATOM     46  O5  IDS C   3      20.921   6.967  15.7360  0.00  0.00     0.000 O
ATOM     47   O  IDS C   3      23.980   8.252  17.0280  0.00  0.00     0.000 O
ATOM     49  HD  IDS C   3      23.897   7.432  17.2940  0.00  0.00     0.000 HD
BRANCH 42 49
ATOM     49   O  IDS C   3      22.592   4.844  16.8600  0.00  0.00     0.000 O
ATOM     50   S  IDS C   3      23.192   3.452  16.3410  0.00  0.00     0.000 S
ATOM     51   O  IDS C   3      24.509   3.414  16.9380  0.00  0.00     0.000 OA
ATOM     52   O  IDS C   3      23.237   3.456  14.8880  0.00  0.00     0.000 OA
ATOM     53   O  IDS C   3      22.311   2.423  16.8540  0.00  0.00     0.000 OA
ENDBRANCH 42 49
BRANCH 45 54
ATOM     54   C  IDS C   3      19.590   8.487  17.0280  0.00  0.00     0.000 C
ATOM     55   O  IDS C   3      19.427   9.411  17.7820  0.00  0.00     0.000 OA
ATOM     56   O  IDS C   3      18.633   7.898  16.5630  0.00  0.00     0.000 OA
ENDBRANCH 45 54
BRANCH 41 57
ATOM     57  O4  SGN C   4      22.912   7.517  14.4960  0.00  0.00     0.000 O
BRANCH 57 61
ATOM     58  C1  SGN C   4      22.846   9.179  10.6540  0.00  0.00     0.000 C
ATOM     59  C2  SGN C   4      21.547   9.274  11.4710  0.00  0.00     0.000 C
ATOM     60  C3  SGN C   4      21.809   9.017  12.9610  0.00  0.00     0.000 C
ATOM     61  C4  SGN C   4      22.530   7.690  13.1270  0.00  0.00     0.000 C
ATOM     62  C5  SGN C   4      23.793   7.655  12.2670  0.00  0.00     0.000 C
ATOM     63  O5  SGN C   4      23.475   7.928  10.8890  0.00  0.00     0.000 O
BRANCH 59 66
ATOM     64   N  SGN C   4      20.972  10.569  11.0900  0.00  0.00     0.000 N
ATOM     66  HD  SGN C   4      21.168   9.838  11.5120  0.00  0.00     0.000 HD
ATOM     66   O  SGN C   4      19.184  12.016  10.2880  0.00  0.00     0.000 OA
ATOM     67   O  SGN C   4      19.520   9.802   9.2720  0.00  0.00     0.000 OA
ATOM     68   S  SGN C   4      19.450  10.650  10.5900  0.00  0.00     0.000 S
ATOM     69   O  SGN C   4      18.633   9.973  11.5310  0.00  0.00     0.000 OA
ENDBRANCH 59 66
BRANCH 62 70
ATOM     70   C  SGN C   4      24.455   6.301  12.3100  0.00  0.00     0.000 C
ATOM     71   S  SGN C   4      25.079   4.269  10.8770  0.00  0.00     0.000 S
ATOM     72   O  SGN C   4      26.399   4.268  11.4780  0.00  0.00     0.000 OA
ATOM     73   O  SGN C   4      24.115   3.472  11.6080  0.00  0.00     0.000 OA
ATOM     74   O  SGN C   4      25.092   4.010   9.4550  0.00  0.00     0.000 OA
ATOM     75   O  SGN C   4      24.586   5.775  10.9840  0.00  0.00     0.000 O
ENDBRANCH 62 70
ENDBRANCH 57 61
ENDBRANCH 41 57
ENDBRANCH 40 44
ENDBRANCH 20 40
ENDBRANCH 19 23
ENDBRANCH 1 19
TORSDOF 14
ENDMDL
MODEL 23
REMARK VINA RESULT:      -2.7     14.651     19.383
ROOT
ATOM      1  C1  IDS C   1      27.277   6.976  34.3660  0.00  0.00     0.000 C
ATOM      2  C2  IDS C   1      27.153   7.856  33.1340  0.00  0.00     0.000 C
ATOM      3  C3  IDS C   1      26.782   9.281  33.5240  0.00  0.00     0.000 C
ATOM      4  C4  IDS C   1      27.720   9.821  34.6030  0.00  0.00     0.000 C
ATOM      5  C5  IDS C   1      27.844   8.807  35.7580  0.00  0.00     0.000 C
ATOM      6  O5  IDS C   1      28.238   7.532  35.2620  0.00  0.00     0.000 O
ATOM      7   O  IDS C   1      25.427   9.314  33.9770  0.00  0.00     0.000 O
ATOM      9  HD  IDS C   1      25.756   9.990  34.4060  0.00  0.00     0.000 HD
ATOM      9   O  IDS C   1      29.016  10.045  34.0260  0.00  0.00     0.000 O
ATOM     11  HD  IDS C   1      29.344  10.722  34.4550  0.00  0.00     0.000 HD
ENDROOT
BRANCH 2 11
ATOM     11   O  IDS C   1      28.444   7.908  32.4120  0.00  0.00     0.000 O
ATOM     12   S  IDS C   1      29.043   6.599  31.7190  0.00  0.00     0.000 S
ATOM     13   O  IDS C   1      29.697   7.143  30.5500  0.00  0.00     0.000 OA
ATOM     14   O  IDS C   1      27.966   5.695  31.3930  0.00  0.00     0.000 OA
ATOM     15   O  IDS C   1      29.961   6.061  32.6920  0.00  0.00     0.000 OA
ENDBRANCH 2 11
BRANCH 5 16
ATOM     16   C  IDS C   1      28.850   9.223  36.8160  0.00  0.00     0.000 C
ATOM     17   O  IDS C   1      28.450   9.495  37.9280  0.00  0.00     0.000 OA
ATOM     18   O  IDS C   1      30.019   9.298  36.5570  0.00  0.00     0.000 OA
ENDBRANCH 5 16
BRANCH 1 19
ATOM     19  O4  SGN C   2      26.168   6.487  34.9280  0.00  0.00     0.000 O
BRANCH 19 23
ATOM     20  C1  SGN C   2      24.477   3.233  36.9230  0.00  0.00     0.000 C
ATOM     21  C2  SGN C   2      25.611   3.967  37.6480  0.00  0.00     0.000 C
ATOM     22  C3  SGN C   2      25.817   5.344  37.0230  0.00  0.00     0.000 C
ATOM     23  C4  SGN C   2      26.096   5.194  35.5320  0.00  0.00     0.000 C
ATOM     24  C5  SGN C   2      24.979   4.380  34.8730  0.00  0.00     0.000 C
ATOM     25  O5  SGN C   2      24.827   3.121  35.5530  0.00  0.00     0.000 O
ATOM     26   O  SGN C   2      26.877   6.034  37.6750  0.00  0.00     0.000 O
ATOM     28  HD  SGN C   2      27.484   6.408  38.1660  0.00  0.00     0.000 HD
BRANCH 21 30
ATOM     28   N  SGN C   2      25.039   3.368  38.8620  0.00  0.00     0.000 N
ATOM     30  HD  SGN C   2      24.873   3.890  39.5320  0.00  0.00     0.000 HD
ATOM     30   S  SGN C   2      25.972   2.906  40.0770  0.00  0.00     0.000 S
ATOM     31   O  SGN C   2      26.757   4.049  40.4040  0.00  0.00     0.000 OA
ATOM     32   O  SGN C   2      25.157   2.302  41.0640  0.00  0.00     0.000 OA
ATOM     33   O  SGN C   2      26.864   1.774  39.4630  0.00  0.00     0.000 OA
ENDBRANCH 21 30
BRANCH 24 34
ATOM     34   C  SGN C   2      25.242   4.053  33.4220  0.00  0.00     0.000 C
ATOM     35   O  SGN C   2      24.186   4.608  32.6190  0.00  0.00     0.000 O
ATOM     36   S  SGN C   2      23.994   4.002  31.1540  0.00  0.00     0.000 S
ATOM     37   O  SGN C   2      23.864   2.573  31.3590  0.00  0.00     0.000 OA
ATOM     38   O  SGN C   2      22.799   4.618  30.6310  0.00  0.00     0.000 OA
ATOM     39   O  SGN C   2      25.198   4.387  30.4580  0.00  0.00     0.000 OA
ENDBRANCH 24 34
BRANCH 20 40
ATOM     40  O4  IDS C   3      23.252   3.743  37.0210  0.00  0.00     0.000 O
BRANCH 40 44
ATOM     41  C1  IDS C   3      19.999   4.905  37.7260  0.00  0.00     0.000 C
ATOM     42  C2  IDS C   3      20.968   4.521  38.8400  0.00  0.00     0.000 C
ATOM     43  C3  IDS C   3      21.530   3.123  38.5960  0.00  0.00     0.000 C
ATOM     44  C4  IDS C   3      22.060   2.969  37.1790  0.00  0.00     0.000 C
ATOM     45  C5  IDS C   3      20.995   3.440  36.1660  0.00  0.00     0.000 C
ATOM     46  O5  IDS C   3      20.630   4.791  36.4530  0.00  0.00     0.000 O
ATOM     47   O  IDS C   3      20.514   2.154  38.8430  0.00  0.00     0.000 O
ATOM     49  HD  IDS C   3      21.104   2.731  39.1050  0.00  0.00     0.000 HD
BRANCH 42 49
ATOM     49   O  IDS C   3      22.093   5.483  38.8910  0.00  0.00     0.000 O
ATOM     50   S  IDS C   3      22.549   6.098  40.2980  0.00  0.00     0.000 S
ATOM     51   O  IDS C   3      23.188   4.981  40.9590  0.00  0.00     0.000 OA
ATOM     52   O  IDS C   3      21.380   6.577  41.0180  0.00  0.00     0.000 OA
ATOM     53   O  IDS C   3      23.470   7.169  39.9850  0.00  0.00     0.000 OA
ENDBRANCH 42 49
BRANCH 45 54
ATOM     54   C  IDS C   3      21.460   3.356  34.7210  0.00  0.00     0.000 C
ATOM     55   O  IDS C   3      21.953   2.337  34.3110  0.00  0.00     0.000 OA
ATOM     56   O  IDS C   3      21.349   4.321  33.9910  0.00  0.00     0.000 OA
ENDBRANCH 45 54
BRANCH 41 57
ATOM     57  O4  SGN C   4      18.840   4.288  37.9840  0.00  0.00     0.000 O
BRANCH 57 61
ATOM     58  C1  SGN C   4      14.929   4.613  36.5240  0.00  0.00     0.000 C
ATOM     59  C2  SGN C   4      15.770   3.440  35.9940  0.00  0.00     0.000 C
ATOM     60  C3  SGN C   4      16.995   3.189  36.8850  0.00  0.00     0.000 C
ATOM     61  C4  SGN C   4      17.785   4.478  37.0360  0.00  0.00     0.000 C
ATOM     62  C5  SGN C   4      16.883   5.604  37.5370  0.00  0.00     0.000 C
ATOM     63  O5  SGN C   4      15.745   5.767  36.6690  0.00  0.00     0.000 O
BRANCH 59 66
ATOM     64   N  SGN C   4      15.173   2.446  35.0960  0.00  0.00     0.000 N
ATOM     66  HD  SGN C   4      15.304   3.137  35.6020  0.00  0.00     0.000 HD
ATOM     66   O  SGN C   4      13.696   0.581  34.5730  0.00  0.00     0.000 OA
ATOM     67   O  SGN C   4      14.934   0.607  36.6960  0.00  0.00     0.000 OA
ATOM     68   S  SGN C   4      14.080   1.416  35.6600  0.00  0.00     0.000 S
ATOM     69   O  SGN C   4      13.087   2.153  36.3560  0.00  0.00     0.000 OA
ENDBRANCH 59 66
BRANCH 62 70
ATOM     70   C  SGN C   4      17.611   6.925  37.5680  0.00  0.00     0.000 C
ATOM     71   S  SGN C   4      17.270   9.464  37.4810  0.00  0.00     0.000 S
ATOM     72   O  SGN C   4      18.193   9.612  38.5890  0.00  0.00     0.000 OA
ATOM     73   O  SGN C   4      17.918   9.495  36.1860  0.00  0.00     0.000 OA
ATOM     74   O  SGN C   4      16.113  10.325  37.5750  0.00  0.00     0.000 OA
ATOM     75   O  SGN C   4      16.670   8.003  37.6450  0.00  0.00     0.000 O
ENDBRANCH 62 70
ENDBRANCH 57 61
ENDBRANCH 41 57
ENDBRANCH 40 44
ENDBRANCH 20 40
ENDBRANCH 19 23
ENDBRANCH 1 19
TORSDOF 14
ENDMDL
MODEL 24
REMARK VINA RESULT:      -2.4      6.369     12.017
ROOT
ATOM      1  C1  IDS C   1      10.658   8.241  21.0700  0.00  0.00     0.000 C
ATOM      2  C2  IDS C   1       9.301   8.867  21.3420  0.00  0.00     0.000 C
ATOM      3  C3  IDS C   1       8.338   8.590  20.1940  0.00  0.00     0.000 C
ATOM      4  C4  IDS C   1       8.298   7.100  19.8550  0.00  0.00     0.000 C
ATOM      5  C5  IDS C   1       9.729   6.551  19.6930  0.00  0.00     0.000 C
ATOM      6  O5  IDS C   1      10.507   6.840  20.8500  0.00  0.00     0.000 O
ATOM      7   O  IDS C   1       8.727   9.353  19.0510  0.00  0.00     0.000 O
ATOM      9  HD  IDS C   1       8.324   8.688  18.6700  0.00  0.00     0.000 HD
ATOM      9   O  IDS C   1       7.635   6.397  20.9170  0.00  0.00     0.000 O
ATOM     11  HD  IDS C   1       7.232   5.732  20.5360  0.00  0.00     0.000 HD
ENDROOT
BRANCH 2 11
ATOM     11   O  IDS C   1       8.712   8.294  22.5720  0.00  0.00     0.000 O
ATOM     12   S  IDS C   1       9.098   8.879  24.0080  0.00  0.00     0.000 S
ATOM     13   O  IDS C   1       7.861   8.730  24.7420  0.00  0.00     0.000 OA
ATOM     14   O  IDS C   1       9.510  10.255  23.8700  0.00  0.00     0.000 OA
ATOM     15   O  IDS C   1      10.152   8.016  24.4800  0.00  0.00     0.000 OA
ENDBRANCH 2 11
BRANCH 5 16
ATOM     16   C  IDS C   1       9.774   5.051  19.4680  0.00  0.00     0.000 C
ATOM     17   O  IDS C   1       9.675   4.313  20.4260  0.00  0.00     0.000 OA
ATOM     18   O  IDS C   1       9.922   4.598  18.3670  0.00  0.00     0.000 OA
ENDBRANCH 5 16
BRANCH 1 19
ATOM     19  O4  SGN C   2      11.512   8.871  20.2580  0.00  0.00     0.000 O
BRANCH 19 23
ATOM     20  C1  SGN C   2      15.477   8.908  18.9530  0.00  0.00     0.000 C
ATOM     21  C2  SGN C   2      14.478   8.133  18.0860  0.00  0.00     0.000 C
ATOM     22  C3  SGN C   2      13.054   8.564  18.4290  0.00  0.00     0.000 C
ATOM     23  C4  SGN C   2      12.800   8.355  19.9170  0.00  0.00     0.000 C
ATOM     24  C5  SGN C   2      13.875   9.077  20.7340  0.00  0.00     0.000 C
ATOM     25  O5  SGN C   2      15.181   8.642  20.3140  0.00  0.00     0.000 O
ATOM     26   O  SGN C   2      12.112   7.843  17.6430  0.00  0.00     0.000 O
ATOM     28  HD  SGN C   2      11.612   7.414  17.0810  0.00  0.00     0.000 HD
BRANCH 21 30
ATOM     28   N  SGN C   2      15.720   7.734  17.4100  0.00  0.00     0.000 N
ATOM     30  HD  SGN C   2      16.119   8.322  16.9150  0.00  0.00     0.000 HD
ATOM     30   S  SGN C   2      15.707   7.190  15.9050  0.00  0.00     0.000 S
ATOM     31   O  SGN C   2      15.023   8.186  15.1510  0.00  0.00     0.000 OA
ATOM     32   O  SGN C   2      17.026   6.816  15.5510  0.00  0.00     0.000 OA
ATOM     33   O  SGN C   2      14.862   5.873  15.9840  0.00  0.00     0.000 OA
ENDBRANCH 21 30
BRANCH 24 34
ATOM     34   C  SGN C   2      13.793   8.806  22.2180  0.00  0.00     0.000 C
ATOM     35   O  SGN C   2      14.799   7.841  22.5740  0.00  0.00     0.000 O
ATOM     36   S  SGN C   2      14.600   7.062  23.9530  0.00  0.00     0.000 S
ATOM     37   O  SGN C   2      13.270   6.493  23.8670  0.00  0.00     0.000 OA
ATOM     38   O  SGN C   2      15.647   6.069  23.9930  0.00  0.00     0.000 OA
ATOM     39   O  SGN C   2      14.734   8.089  24.9560  0.00  0.00     0.000 OA
ENDBRANCH 24 34
BRANCH 20 40
ATOM     40  O4  IDS C   3      15.559  10.224  18.7710  0.00  0.00     0.000 O
BRANCH 40 44
ATOM     41  C1  IDS C   3      16.077  13.561  17.7610  0.00  0.00     0.000 C
ATOM     42  C2  IDS C   3      16.284  12.395  16.7990  0.00  0.00     0.000 C
ATOM     43  C3  IDS C   3      17.210  11.352  17.4200  0.00  0.00     0.000 C
ATOM     44  C4  IDS C   3      16.773  10.977  18.8270  0.00  0.00     0.000 C
ATOM     45  C5  IDS C   3      16.555  12.253  19.6670  0.00  0.00     0.000 C
ATOM     46  O5  IDS C   3      15.598  13.093  19.0190  0.00  0.00     0.000 O
ATOM     47   O  IDS C   3      18.543  11.857  17.4440  0.00  0.00     0.000 O
ATOM     49  HD  IDS C   3      17.857  11.522  17.0360  0.00  0.00     0.000 HD
BRANCH 42 49
ATOM     49   O  IDS C   3      14.986  11.751  16.4910  0.00  0.00     0.000 O
ATOM     50   S  IDS C   3      14.265  12.048  15.0910  0.00  0.00     0.000 S
ATOM     51   O  IDS C   3      15.089  11.341  14.1360  0.00  0.00     0.000 OA
ATOM     52   O  IDS C   3      14.242  13.482  14.8540  0.00  0.00     0.000 OA
ATOM     53   O  IDS C   3      12.933  11.494  15.2040  0.00  0.00     0.000 OA
ENDBRANCH 42 49
BRANCH 45 54
ATOM     54   C  IDS C   3      16.076  11.968  21.0820  0.00  0.00     0.000 C
ATOM     55   O  IDS C   3      16.726  11.252  21.7990  0.00  0.00     0.000 OA
ATOM     56   O  IDS C   3      15.032  12.449  21.4770  0.00  0.00     0.000 OA
ENDBRANCH 45 54
BRANCH 41 57
ATOM     57  O4  SGN C   4      17.165  14.336  17.6770  0.00  0.00     0.000 O
BRANCH 57 61
ATOM     58  C1  SGN C   4      18.136  18.382  18.1400  0.00  0.00     0.000 C
ATOM     59  C2  SGN C   4      17.335  17.728  19.2780  0.00  0.00     0.000 C
ATOM     60  C3  SGN C   4      17.401  16.197  19.1940  0.00  0.00     0.000 C
ATOM     61  C4  SGN C   4      16.962  15.746  17.8110  0.00  0.00     0.000 C
ATOM     62  C5  SGN C   4      17.777  16.456  16.7310  0.00  0.00     0.000 C
ATOM     63  O5  SGN C   4      17.690  17.885  16.8870  0.00  0.00     0.000 O
BRANCH 59 66
ATOM     64   N  SGN C   4      17.844  18.368  20.4960  0.00  0.00     0.000 N
ATOM     66  HD  SGN C   4      17.476  17.817  19.9380  0.00  0.00     0.000 HD
ATOM     66   O  SGN C   4      17.598  19.573  22.5980  0.00  0.00     0.000 OA
ATOM     67   O  SGN C   4      16.209  20.183  20.6640  0.00  0.00     0.000 OA
ATOM     68   S  SGN C   4      16.820  19.032  21.5360  0.00  0.00     0.000 S
ATOM     69   O  SGN C   4      15.803  18.087  21.8290  0.00  0.00     0.000 OA
ENDBRANCH 59 66
BRANCH 62 70
ATOM     70   C  SGN C   4      17.272  16.127  15.3490  0.00  0.00     0.000 C
ATOM     71   S  SGN C   4      16.269  17.157  13.2260  0.00  0.00     0.000 S
ATOM     72   O  SGN C   4      17.185  16.367  12.4270  0.00  0.00     0.000 OA
ATOM     73   O  SGN C   4      15.018  16.480  13.5030  0.00  0.00     0.000 OA
ATOM     74   O  SGN C   4      16.105  18.510  12.7490  0.00  0.00     0.000 OA
ATOM     75   O  SGN C   4      17.000  17.333  14.6250  0.00  0.00     0.000 O
ENDBRANCH 62 70
ENDBRANCH 57 61
ENDBRANCH 41 57
ENDBRANCH 40 44
ENDBRANCH 20 40
ENDBRANCH 19 23
ENDBRANCH 1 19
TORSDOF 14
ENDMDL
MODEL 25
REMARK VINA RESULT:      -2.4     14.568     19.547
ROOT
ATOM      1  C1  IDS C   1      27.487   7.162  34.3680  0.00  0.00     0.000 C
ATOM      2  C2  IDS C   1      27.528   8.016  33.1130  0.00  0.00     0.000 C
ATOM      3  C3  IDS C   1      27.397   9.494  33.4610  0.00  0.00     0.000 C
ATOM      4  C4  IDS C   1      28.398   9.898  34.5430  0.00  0.00     0.000 C
ATOM      5  C5  IDS C   1      28.335   8.909  35.7240  0.00  0.00     0.000 C
ATOM      6  O5  IDS C   1      28.515   7.573  35.2670  0.00  0.00     0.000 O
ATOM      7   O  IDS C   1      26.061   9.765  33.8890  0.00  0.00     0.000 O
ATOM      9  HD  IDS C   1      26.493  10.389  34.3070  0.00  0.00     0.000 HD
ATOM      9   O  IDS C   1      29.721   9.886  33.9820  0.00  0.00     0.000 O
ATOM     11  HD  IDS C   1      30.153  10.509  34.4000  0.00  0.00     0.000 HD
ENDROOT
BRANCH 2 11
ATOM     11   O  IDS C   1      28.819   7.832  32.4130  0.00  0.00     0.000 O
ATOM     12   S  IDS C   1      29.077   6.539  31.5090  0.00  0.00     0.000 S
ATOM     13   O  IDS C   1      29.908   7.067  30.4500  0.00  0.00     0.000 OA
ATOM     14   O  IDS C   1      27.814   6.028  31.0340  0.00  0.00     0.000 OA
ATOM     15   O  IDS C   1      29.770   5.621  32.3790  0.00  0.00     0.000 OA
ENDBRANCH 2 11
BRANCH 5 16
ATOM     16   C  IDS C   1      29.383   9.179  36.7890  0.00  0.00     0.000 C
ATOM     17   O  IDS C   1      29.018   9.489  37.9030  0.00  0.00     0.000 OA
ATOM     18   O  IDS C   1      30.553   9.104  36.5330  0.00  0.00     0.000 OA
ENDBRANCH 5 16
BRANCH 1 19
ATOM     19  O4  SGN C   2      26.304   6.881  34.9230  0.00  0.00     0.000 O
BRANCH 19 23
ATOM     20  C1  SGN C   2      23.962   3.905  36.6790  0.00  0.00     0.000 C
ATOM     21  C2  SGN C   2      25.117   4.454  37.5240  0.00  0.00     0.000 C
ATOM     22  C3  SGN C   2      25.585   5.790  36.9510  0.00  0.00     0.000 C
ATOM     23  C4  SGN C   2      25.982   5.610  35.4900  0.00  0.00     0.000 C
ATOM     24  C5  SGN C   2      24.825   4.978  34.7110  0.00  0.00     0.000 C
ATOM     25  O5  SGN C   2      24.422   3.751  35.3460  0.00  0.00     0.000 O
ATOM     26   O  SGN C   2      26.669   6.307  37.7140  0.00  0.00     0.000 O
ATOM     28  HD  SGN C   2      27.274   6.583  38.2690  0.00  0.00     0.000 HD
BRANCH 21 30
ATOM     28   N  SGN C   2      25.067   4.608  38.9840  0.00  0.00     0.000 N
ATOM     30  HD  SGN C   2      25.817   4.616  39.4170  0.00  0.00     0.000 HD
ATOM     30   S  SGN C   2      25.080   3.335  39.9520  0.00  0.00     0.000 S
ATOM     31   O  SGN C   2      26.225   2.580  39.5670  0.00  0.00     0.000 OA
ATOM     32   O  SGN C   2      24.947   3.785  41.2880  0.00  0.00     0.000 OA
ATOM     33   O  SGN C   2      23.761   2.570  39.5930  0.00  0.00     0.000 OA
ENDBRANCH 21 30
BRANCH 24 34
ATOM     34   C  SGN C   2      25.175   4.625  33.2840  0.00  0.00     0.000 C
ATOM     35   O  SGN C   2      24.235   3.650  32.8000  0.00  0.00     0.000 O
ATOM     36   S  SGN C   2      24.671   2.793  31.5250  0.00  0.00     0.000 S
ATOM     37   O  SGN C   2      25.952   2.220  31.8860  0.00  0.00     0.000 OA
ATOM     38   O  SGN C   2      23.631   1.808  31.3450  0.00  0.00     0.000 OA
ATOM     39   O  SGN C   2      24.743   3.764  30.4610  0.00  0.00     0.000 OA
ENDBRANCH 24 34
BRANCH 20 40
ATOM     40  O4  IDS C   3      22.823   4.593  36.6720  0.00  0.00     0.000 O
BRANCH 40 44
ATOM     41  C1  IDS C   3      19.694   5.693  37.8660  0.00  0.00     0.000 C
ATOM     42  C2  IDS C   3      20.518   4.657  38.6250  0.00  0.00     0.000 C
ATOM     43  C3  IDS C   3      20.921   3.515  37.6960  0.00  0.00     0.000 C
ATOM     44  C4  IDS C   3      21.536   4.030  36.4040  0.00  0.00     0.000 C
ATOM     45  C5  IDS C   3      20.620   5.101  35.7770  0.00  0.00     0.000 C
ATOM     46  O5  IDS C   3      20.403   6.154  36.7190  0.00  0.00     0.000 O
ATOM     47   O  IDS C   3      19.777   2.716  37.4040  0.00  0.00     0.000 O
ATOM     49  HD  IDS C   3      20.411   2.985  37.9280  0.00  0.00     0.000 HD
BRANCH 42 49
ATOM     49   O  IDS C   3      21.746   5.282  39.1680  0.00  0.00     0.000 O
ATOM     50   S  IDS C   3      21.782   5.766  40.6950  0.00  0.00     0.000 S
ATOM     51   O  IDS C   3      21.824   4.525  41.4370  0.00  0.00     0.000 OA
ATOM     52   O  IDS C   3      20.591   6.548  40.9820  0.00  0.00     0.000 OA
ATOM     53   O  IDS C   3      22.992   6.548  40.8360  0.00  0.00     0.000 OA
ENDBRANCH 42 49
BRANCH 45 54
ATOM     54   C  IDS C   3      21.182   5.700  34.4970  0.00  0.00     0.000 C
ATOM     55   O  IDS C   3      21.331   6.891  34.4110  0.00  0.00     0.000 OA
ATOM     56   O  IDS C   3      21.462   4.977  33.5610  0.00  0.00     0.000 OA
ENDBRANCH 45 54
BRANCH 41 57
ATOM     57  O4  SGN C   4      18.451   5.207  37.7650  0.00  0.00     0.000 O
BRANCH 57 61
ATOM     58  C1  SGN C   4      14.702   6.952  37.1080  0.00  0.00     0.000 C
ATOM     59  C2  SGN C   4      15.930   7.764  36.6650  0.00  0.00     0.000 C
ATOM     60  C3  SGN C   4      17.179   6.876  36.5750  0.00  0.00     0.000 C
ATOM     61  C4  SGN C   4      17.380   6.148  37.8930  0.00  0.00     0.000 C
ATOM     62  C5  SGN C   4      16.114   5.389  38.2850  0.00  0.00     0.000 C
ATOM     63  O5  SGN C   4      14.981   6.277  38.3260  0.00  0.00     0.000 O
BRANCH 59 66
ATOM     64   N  SGN C   4      15.424   8.468  35.4820  0.00  0.00     0.000 N
ATOM     66  HD  SGN C   4      15.933   8.063  36.0540  0.00  0.00     0.000 HD
ATOM     66   O  SGN C   4      15.155  10.418  34.0470  0.00  0.00     0.000 OA
ATOM     67   O  SGN C   4      15.077  10.673  36.4910  0.00  0.00     0.000 OA
ATOM     68   S  SGN C   4      15.787  10.014  35.2570  0.00  0.00     0.000 S
ATOM     69   O  SGN C   4      17.190  10.169  35.3960  0.00  0.00     0.000 OA
ENDBRANCH 59 66
BRANCH 62 70
ATOM     70   C  SGN C   4      16.241   4.768  39.6540  0.00  0.00     0.000 C
ATOM     71   S  SGN C   4      16.113   2.545  40.9240  0.00  0.00     0.000 S
ATOM     72   O  SGN C   4      17.333   2.893  41.6270  0.00  0.00     0.000 OA
ATOM     73   O  SGN C   4      14.914   3.009  41.5920  0.00  0.00     0.000 OA
ATOM     74   O  SGN C   4      16.055   1.159  40.5190  0.00  0.00     0.000 OA
ATOM     75   O  SGN C   4      16.196   3.339  39.5520  0.00  0.00     0.000 O
ENDBRANCH 62 70
ENDBRANCH 57 61
ENDBRANCH 41 57
ENDBRANCH 40 44
ENDBRANCH 20 40
ENDBRANCH 19 23
ENDBRANCH 1 19
TORSDOF 14
ENDMDL
MODEL 26
REMARK VINA RESULT:      -2.4     11.332     15.384
ROOT
ATOM      1  C1  IDS C   1      11.510   9.244  36.5260  0.00  0.00     0.000 C
ATOM      2  C2  IDS C   1      10.952  10.060  35.3730  0.00  0.00     0.000 C
ATOM      3  C3  IDS C   1      10.629   9.163  34.1840  0.00  0.00     0.000 C
ATOM      4  C4  IDS C   1       9.762   7.977  34.6060  0.00  0.00     0.000 C
ATOM      5  C5  IDS C   1      10.374   7.282  35.8390  0.00  0.00     0.000 C
ATOM      6  O5  IDS C   1      10.584   8.222  36.8880  0.00  0.00     0.000 O
ATOM      7   O  IDS C   1      11.844   8.708  33.5860  0.00  0.00     0.000 O
ATOM      9  HD  IDS C   1      11.307   8.064  33.3680  0.00  0.00     0.000 HD
ATOM      9   O  IDS C   1       8.447   8.452  34.9310  0.00  0.00     0.000 O
ATOM     11  HD  IDS C   1       7.910   7.808  34.7120  0.00  0.00     0.000 HD
ENDROOT
BRANCH 2 11
ATOM     11   O  IDS C   1       9.699  10.732  35.7830  0.00  0.00     0.000 O
ATOM     12   S  IDS C   1       9.742  12.126  36.5640  0.00  0.00     0.000 S
ATOM     13   O  IDS C   1       8.566  12.797  36.0560  0.00  0.00     0.000 OA
ATOM     14   O  IDS C   1      10.968  12.817  36.2430  0.00  0.00     0.000 OA
ATOM     15   O  IDS C   1       9.641  11.765  37.9560  0.00  0.00     0.000 OA
ENDBRANCH 2 11
BRANCH 5 16
ATOM     16   C  IDS C   1       9.508   6.163  36.3880  0.00  0.00     0.000 C
ATOM     17   O  IDS C   1       8.744   5.594  35.6380  0.00  0.00     0.000 OA
ATOM     18   O  IDS C   1       9.562   5.854  37.5470  0.00  0.00     0.000 OA
ENDBRANCH 5 16
BRANCH 1 19
ATOM     19  O4  SGN C   2      12.797   8.885  36.5030  0.00  0.00     0.000 O
BRANCH 19 23
ATOM     20  C1  SGN C   2      16.376   8.893  38.6510  0.00  0.00     0.000 C
ATOM     21  C2  SGN C   2      15.371   7.789  38.9990  0.00  0.00     0.000 C
ATOM     22  C3  SGN C   2      14.349   7.648  37.8740  0.00  0.00     0.000 C
ATOM     23  C4  SGN C   2      13.664   8.988  37.6340  0.00  0.00     0.000 C
ATOM     24  C5  SGN C   2      14.715  10.071  37.3770  0.00  0.00     0.000 C
ATOM     25  O5  SGN C   2      15.659  10.102  38.4630  0.00  0.00     0.000 O
ATOM     26   O  SGN C   2      13.398   6.637  38.1890  0.00  0.00     0.000 O
ATOM     28  HD  SGN C   2      12.905   5.965  38.4240  0.00  0.00     0.000 HD
BRANCH 21 30
ATOM     28   N  SGN C   2      16.321   7.566  40.0980  0.00  0.00     0.000 N
ATOM     30  HD  SGN C   2      17.093   7.225  39.9040  0.00  0.00     0.000 HD
ATOM     30   S  SGN C   2      16.423   6.147  40.8310  0.00  0.00     0.000 S
ATOM     31   O  SGN C   2      16.630   5.199  39.7890  0.00  0.00     0.000 OA
ATOM     32   O  SGN C   2      17.359   6.254  41.8870  0.00  0.00     0.000 OA
ATOM     33   O  SGN C   2      15.013   5.956  41.4860  0.00  0.00     0.000 OA
ENDBRANCH 21 30
BRANCH 24 34
ATOM     34   C  SGN C   2      14.140  11.464  37.2730  0.00  0.00     0.000 C
ATOM     35   O  SGN C   2      14.816  12.321  38.2100  0.00  0.00     0.000 O
ATOM     36   S  SGN C   2      14.080  13.679  38.6130  0.00  0.00     0.000 S
ATOM     37   O  SGN C   2      12.766  13.267  39.0640  0.00  0.00     0.000 OA
ATOM     38   O  SGN C   2      14.888  14.264  39.6560  0.00  0.00     0.000 OA
ATOM     39   O  SGN C   2      14.067  14.444  37.3900  0.00  0.00     0.000 OA
ENDBRANCH 24 34
BRANCH 20 40
ATOM     40  O4  IDS C   3      17.175   8.691  37.6050  0.00  0.00     0.000 O
BRANCH 40 44
ATOM     41  C1  IDS C   3      19.659   7.581  35.3640  0.00  0.00     0.000 C
ATOM     42  C2  IDS C   3      19.441   6.903  36.7130  0.00  0.00     0.000 C
ATOM     43  C3  IDS C   3      19.456   7.937  37.8370  0.00  0.00     0.000 C
ATOM     44  C4  IDS C   3      18.539   9.111  37.5330  0.00  0.00     0.000 C
ATOM     45  C5  IDS C   3      18.840   9.661  36.1230  0.00  0.00     0.000 C
ATOM     46  O5  IDS C   3      18.697   8.613  35.1620  0.00  0.00     0.000 O
ATOM     47   O  IDS C   3      20.789   8.400  38.0350  0.00  0.00     0.000 O
ATOM     49  HD  IDS C   3      20.164   7.806  38.1110  0.00  0.00     0.000 HD
BRANCH 42 49
ATOM     49   O  IDS C   3      18.133   6.206  36.7280  0.00  0.00     0.000 O
ATOM     50   S  IDS C   3      18.037   4.689  36.2220  0.00  0.00     0.000 S
ATOM     51   O  IDS C   3      18.690   3.944  37.2750  0.00  0.00     0.000 OA
ATOM     52   O  IDS C   3      18.716   4.562  34.9440  0.00  0.00     0.000 OA
ATOM     53   O  IDS C   3      16.623   4.394  36.1170  0.00  0.00     0.000 OA
ENDBRANCH 42 49
BRANCH 45 54
ATOM     54   C  IDS C   3      17.937  10.818  35.7220  0.00  0.00     0.000 C
ATOM     55   O  IDS C   3      17.867  11.791  36.4260  0.00  0.00     0.000 OA
ATOM     56   O  IDS C   3      17.278  10.747  34.7030  0.00  0.00     0.000 OA
ENDBRANCH 45 54
BRANCH 41 57
ATOM     57  O4  SGN C   4      20.971   7.823  35.2550  0.00  0.00     0.000 O
BRANCH 57 61
ATOM     58  C1  SGN C   4      23.818   8.302  32.2230  0.00  0.00     0.000 C
ATOM     59  C2  SGN C   4      22.663   9.315  32.2520  0.00  0.00     0.000 C
ATOM     60  C3  SGN C   4      21.941   9.294  33.6070  0.00  0.00     0.000 C
ATOM     61  C4  SGN C   4      21.507   7.874  33.9290  0.00  0.00     0.000 C
ATOM     62  C5  SGN C   4      22.697   6.919  33.8530  0.00  0.00     0.000 C
ATOM     63  O5  SGN C   4      23.338   7.010  32.5660  0.00  0.00     0.000 O
BRANCH 59 66
ATOM     64   N  SGN C   4      23.195  10.313  31.3190  0.00  0.00     0.000 N
ATOM     66  HD  SGN C   4      23.039   9.833  32.0230  0.00  0.00     0.000 HD
ATOM     66   O  SGN C   4      23.425  12.569  30.4290  0.00  0.00     0.000 OA
ATOM     67   O  SGN C   4      21.226  11.763  31.1760  0.00  0.00     0.000 OA
ATOM     68   S  SGN C   4      22.765  11.852  31.4660  0.00  0.00     0.000 S
ATOM     69   O  SGN C   4      22.958  12.244  32.8160  0.00  0.00     0.000 OA
ENDBRANCH 59 66
BRANCH 62 70
ATOM     70   C  SGN C   4      22.269   5.485  34.0360  0.00  0.00     0.000 C
ATOM     71   S  SGN C   4      22.962   3.249  35.0800  0.00  0.00     0.000 S
ATOM     72   O  SGN C   4      21.617   3.088  35.5950  0.00  0.00     0.000 OA
ATOM     73   O  SGN C   4      23.139   2.697  33.7520  0.00  0.00     0.000 OA
ATOM     74   O  SGN C   4      23.990   2.854  36.0170  0.00  0.00     0.000 OA
ATOM     75   O  SGN C   4      23.158   4.818  34.9410  0.00  0.00     0.000 O
ENDBRANCH 62 70
ENDBRANCH 57 61
ENDBRANCH 41 57
ENDBRANCH 40 44
ENDBRANCH 20 40
ENDBRANCH 19 23
ENDBRANCH 1 19
TORSDOF 14
ENDMDL
MODEL 27
REMARK VINA RESULT:      -2.4     13.204     16.359
ROOT
ATOM      1  C1  IDS C   1      13.157   5.036  38.7260  0.00  0.00     0.000 C
ATOM      2  C2  IDS C   1      11.900   5.275  37.9080  0.00  0.00     0.000 C
ATOM      3  C3  IDS C   1      11.808   4.281  36.7560  0.00  0.00     0.000 C
ATOM      4  C4  IDS C   1      11.986   2.846  37.2500  0.00  0.00     0.000 C
ATOM      5  C5  IDS C   1      13.237   2.741  38.1450  0.00  0.00     0.000 C
ATOM      6  O5  IDS C   1      13.175   3.692  39.2020  0.00  0.00     0.000 O
ATOM      7   O  IDS C   1      12.795   4.598  35.7730  0.00  0.00     0.000 O
ATOM      9  HD  IDS C   1      12.701   3.748  35.6370  0.00  0.00     0.000 HD
ATOM      9   O  IDS C   1      10.826   2.466  38.0070  0.00  0.00     0.000 O
ATOM     11  HD  IDS C   1      10.732   1.616  37.8710  0.00  0.00     0.000 HD
ENDROOT
BRANCH 2 11
ATOM     11   O  IDS C   1      10.699   5.096  38.7540  0.00  0.00     0.000 O
ATOM     12   S  IDS C   1      10.260   6.228  39.7930  0.00  0.00     0.000 S
ATOM     13   O  IDS C   1       8.817   6.136  39.7550  0.00  0.00     0.000 OA
ATOM     14   O  IDS C   1      10.755   7.507  39.3440  0.00  0.00     0.000 OA
ATOM     15   O  IDS C   1      10.829   5.808  41.0490  0.00  0.00     0.000 OA
ENDBRANCH 2 11
BRANCH 5 16
ATOM     16   C  IDS C   1      13.416   1.368  38.7670  0.00  0.00     0.000 C
ATOM     17   O  IDS C   1      14.211   1.236  39.6730  0.00  0.00     0.000 OA
ATOM     18   O  IDS C   1      12.796   0.423  38.3630  0.00  0.00     0.000 OA
ENDBRANCH 5 16
BRANCH 1 19
ATOM     19  O4  SGN C   2      14.323   5.513  38.2780  0.00  0.00     0.000 O
BRANCH 19 23
ATOM     20  C1  SGN C   2      17.990   7.187  39.3600  0.00  0.00     0.000 C
ATOM     21  C2  SGN C   2      17.741   5.741  39.8030  0.00  0.00     0.000 C
ATOM     22  C3  SGN C   2      16.598   5.141  38.9880  0.00  0.00     0.000 C
ATOM     23  C4  SGN C   2      15.352   6.007  39.1360  0.00  0.00     0.000 C
ATOM     24  C5  SGN C   2      15.679   7.456  38.7650  0.00  0.00     0.000 C
ATOM     25  O5  SGN C   2      16.792   7.922  39.5490  0.00  0.00     0.000 O
ATOM     26   O  SGN C   2      16.342   3.803  39.3970  0.00  0.00     0.000 O
ATOM     28  HD  SGN C   2      16.297   2.978  39.6570  0.00  0.00     0.000 HD
BRANCH 21 30
ATOM     28   N  SGN C   2      19.135   5.923  40.2280  0.00  0.00     0.000 N
ATOM     30  HD  SGN C   2      19.760   5.621  39.7100  0.00  0.00     0.000 HD
ATOM     30   S  SGN C   2      19.915   4.777  41.0270  0.00  0.00     0.000 S
ATOM     31   O  SGN C   2      19.783   3.605  40.2290  0.00  0.00     0.000 OA
ATOM     32   O  SGN C   2      21.201   5.261  41.3650  0.00  0.00     0.000 OA
ATOM     33   O  SGN C   2      19.113   4.633  42.3650  0.00  0.00     0.000 OA
ENDBRANCH 21 30
BRANCH 24 34
ATOM     34   C  SGN C   2      14.544   8.419  39.0220  0.00  0.00     0.000 C
ATOM     35   O  SGN C   2      15.090   9.697  39.3940  0.00  0.00     0.000 O
ATOM     36   S  SGN C   2      14.117  10.707  40.1560  0.00  0.00     0.000 S
ATOM     37   O  SGN C   2      13.612   9.952  41.2860  0.00  0.00     0.000 OA
ATOM     38   O  SGN C   2      14.942  11.829  40.5370  0.00  0.00     0.000 OA
ATOM     39   O  SGN C   2      13.112  11.032  39.1730  0.00  0.00     0.000 OA
ENDBRANCH 24 34
BRANCH 20 40
ATOM     40  O4  IDS C   3      18.433   7.383  38.1200  0.00  0.00     0.000 O
BRANCH 40 44
ATOM     41  C1  IDS C   3      20.512   7.541  35.2770  0.00  0.00     0.000 C
ATOM     42  C2  IDS C   3      21.017   6.986  36.6060  0.00  0.00     0.000 C
ATOM     43  C3  IDS C   3      20.741   7.975  37.7350  0.00  0.00     0.000 C
ATOM     44  C4  IDS C   3      19.297   8.451  37.7260  0.00  0.00     0.000 C
ATOM     45  C5  IDS C   3      18.913   8.937  36.3120  0.00  0.00     0.000 C
ATOM     46  O5  IDS C   3      19.131   7.883  35.3710  0.00  0.00     0.000 O
ATOM     47   O  IDS C   3      21.621   9.090  37.6130  0.00  0.00     0.000 O
ATOM     49  HD  IDS C   3      21.450   8.266  37.8160  0.00  0.00     0.000 HD
BRANCH 42 49
ATOM     49   O  IDS C   3      20.334   5.709  36.9170  0.00  0.00     0.000 O
ATOM     50   S  IDS C   3      21.132   4.327  36.7800  0.00  0.00     0.000 S
ATOM     51   O  IDS C   3      22.050   4.359  37.8970  0.00  0.00     0.000 OA
ATOM     52   O  IDS C   3      21.816   4.290  35.4970  0.00  0.00     0.000 OA
ATOM     53   O  IDS C   3      20.139   3.280  36.8960  0.00  0.00     0.000 OA
ENDBRANCH 42 49
BRANCH 45 54
ATOM     54   C  IDS C   3      17.467   9.395  36.2040  0.00  0.00     0.000 C
ATOM     55   O  IDS C   3      16.711   8.818  35.4660  0.00  0.00     0.000 OA
ATOM     56   O  IDS C   3      17.084  10.351  36.8500  0.00  0.00     0.000 OA
ENDBRANCH 45 54
BRANCH 41 57
ATOM     57  O4  SGN C   4      21.420   8.428  34.8530  0.00  0.00     0.000 O
BRANCH 57 61
ATOM     58  C1  SGN C   4      22.629  10.178  31.2470  0.00  0.00     0.000 C
ATOM     59  C2  SGN C   4      21.234  10.560  31.7670  0.00  0.00     0.000 C
ATOM     60  C3  SGN C   4      21.077  10.199  33.2510  0.00  0.00     0.000 C
ATOM     61  C4  SGN C   4      21.416   8.732  33.4550  0.00  0.00     0.000 C
ATOM     62  C5  SGN C   4      22.801   8.419  32.8890  0.00  0.00     0.000 C
ATOM     63  O5  SGN C   4      22.883   8.805  31.5040  0.00  0.00     0.000 O
BRANCH 59 66
ATOM     64   N  SGN C   4      20.637  11.573  30.8900  0.00  0.00     0.000 N
ATOM     66  HD  SGN C   4      21.196  11.091  31.3440  0.00  0.00     0.000 HD
ATOM     66   O  SGN C   4      19.903  13.830  30.3410  0.00  0.00     0.000 OA
ATOM     67   O  SGN C   4      19.544  12.939  32.6040  0.00  0.00     0.000 OA
ATOM     68   S  SGN C   4      20.524  13.093  31.3890  0.00  0.00     0.000 S
ATOM     69   O  SGN C   4      21.794  13.502  31.8700  0.00  0.00     0.000 OA
ENDBRANCH 59 66
BRANCH 62 70
ATOM     70   C  SGN C   4      23.107   6.943  32.9590  0.00  0.00     0.000 C
ATOM     71   S  SGN C   4      23.588   4.873  31.5260  0.00  0.00     0.000 S
ATOM     72   O  SGN C   4      24.682   4.530  32.4140  0.00  0.00     0.000 OA
ATOM     73   O  SGN C   4      22.318   4.309  31.9350  0.00  0.00     0.000 OA
ATOM     74   O  SGN C   4      23.893   4.669  30.1280  0.00  0.00     0.000 OA
ATOM     75   O  SGN C   4      23.439   6.448  31.6560  0.00  0.00     0.000 O
ENDBRANCH 62 70
ENDBRANCH 57 61
ENDBRANCH 41 57
ENDBRANCH 40 44
ENDBRANCH 20 40
ENDBRANCH 19 23
ENDBRANCH 1 19
TORSDOF 14
ENDMDL
MODEL 28
REMARK VINA RESULT:      -2.2      5.044      9.520
ROOT
ATOM      1  C1  IDS C   1       9.078  13.971  17.2520  0.00  0.00     0.000 C
ATOM      2  C2  IDS C   1       8.847  13.800  15.7620  0.00  0.00     0.000 C
ATOM      3  C3  IDS C   1       7.370  13.567  15.4670  0.00  0.00     0.000 C
ATOM      4  C4  IDS C   1       6.500  14.635  16.1300  0.00  0.00     0.000 C
ATOM      5  C5  IDS C   1       6.884  14.789  17.6150  0.00  0.00     0.000 C
ATOM      6  O5  IDS C   1       8.279  15.045  17.7450  0.00  0.00     0.000 O
ATOM      7   O  IDS C   1       6.994  12.265  15.9170  0.00  0.00     0.000 O
ATOM      9  HD  IDS C   1       6.235  12.678  15.9700  0.00  0.00     0.000 HD
ATOM      9   O  IDS C   1       6.699  15.886  15.4540  0.00  0.00     0.000 O
ATOM     11  HD  IDS C   1       5.940  16.299  15.5070  0.00  0.00     0.000 HD
ENDROOT
BRANCH 2 11
ATOM     11   O  IDS C   1       9.263  15.021  15.0370  0.00  0.00     0.000 O
ATOM     12   S  IDS C   1      10.211  14.923  13.7540  0.00  0.00     0.000 S
ATOM     13   O  IDS C   1       9.723  16.006  12.9280  0.00  0.00     0.000 OA
ATOM     14   O  IDS C   1      10.049  13.628  13.1380  0.00  0.00     0.000 OA
ATOM     15   O  IDS C   1      11.540  15.145  14.2660  0.00  0.00     0.000 OA
ENDBRANCH 2 11
BRANCH 5 16
ATOM     16   C  IDS C   1       6.141  15.913  18.3140  0.00  0.00     0.000 C
ATOM     17   O  IDS C   1       5.322  16.551  17.6860  0.00  0.00     0.000 OA
ATOM     18   O  IDS C   1       6.367  16.181  19.4610  0.00  0.00     0.000 OA
ENDBRANCH 5 16
BRANCH 1 19
ATOM     19  O4  SGN C   2       9.139  12.885  18.0290  0.00  0.00     0.000 O
BRANCH 19 23
ATOM     20  C1  SGN C   2      10.512  11.336  21.6530  0.00  0.00     0.000 C
ATOM     21  C2  SGN C   2       9.317  12.293  21.7270  0.00  0.00     0.000 C
ATOM     22  C3  SGN C   2       8.672  12.420  20.3490  0.00  0.00     0.000 C
ATOM     23  C4  SGN C   2       9.713  12.884  19.3370  0.00  0.00     0.000 C
ATOM     24  C5  SGN C   2      10.922  11.944  19.3660  0.00  0.00     0.000 C
ATOM     25  O5  SGN C   2      11.435  11.851  20.7070  0.00  0.00     0.000 O
ATOM     26   O  SGN C   2       7.569  13.318  20.3960  0.00  0.00     0.000 O
ATOM     28  HD  SGN C   2       6.876  13.820  20.5240  0.00  0.00     0.000 HD
BRANCH 21 30
ATOM     28   N  SGN C   2       9.534  12.034  23.1560  0.00  0.00     0.000 N
ATOM     30  HD  SGN C   2       9.188  11.316  23.4960  0.00  0.00     0.000 HD
ATOM     30   S  SGN C   2       8.459  12.484  24.2530  0.00  0.00     0.000 S
ATOM     31   O  SGN C   2       7.224  11.921  23.8240  0.00  0.00     0.000 OA
ATOM     32   O  SGN C   2       8.970  12.173  25.5370  0.00  0.00     0.000 OA
ATOM     33   O  SGN C   2       8.430  14.046  24.1380  0.00  0.00     0.000 OA
ENDBRANCH 21 30
BRANCH 24 34
ATOM     34   C  SGN C   2      12.071  12.406  18.5010  0.00  0.00     0.000 C
ATOM     35   O  SGN C   2      12.792  13.440  19.1950  0.00  0.00     0.000 O
ATOM     36   S  SGN C   2      13.726  14.388  18.3140  0.00  0.00     0.000 S
ATOM     37   O  SGN C   2      12.856  14.900  17.2730  0.00  0.00     0.000 OA
ATOM     38   O  SGN C   2      14.204  15.409  19.2150  0.00  0.00     0.000 OA
ATOM     39   O  SGN C   2      14.761  13.507  17.8310  0.00  0.00     0.000 OA
ENDBRANCH 24 34
BRANCH 20 40
ATOM     40  O4  IDS C   3      10.262  10.059  21.3710  0.00  0.00     0.000 O
BRANCH 40 44
ATOM     41  C1  IDS C   3       9.443   6.641  21.1000  0.00  0.00     0.000 C
ATOM     42  C2  IDS C   3       8.872   7.513  22.2150  0.00  0.00     0.000 C
ATOM     43  C3  IDS C   3       9.995   8.247  22.9430  0.00  0.00     0.000 C
ATOM     44  C4  IDS C   3      10.932   8.948  21.9720  0.00  0.00     0.000 C
ATOM     45  C5  IDS C   3      11.388   7.961  20.8770  0.00  0.00     0.000 C
ATOM     46  O5  IDS C   3      10.242   7.421  20.2140  0.00  0.00     0.000 O
ATOM     47   O  IDS C   3      10.727   7.320  23.7410  0.00  0.00     0.000 O
ATOM     49  HD  IDS C   3      10.032   7.811  23.5770  0.00  0.00     0.000 HD
BRANCH 42 49
ATOM     49   O  IDS C   3       7.938   8.515  21.6500  0.00  0.00     0.000 O
ATOM     50   S  IDS C   3       6.375   8.422  21.9880  0.00  0.00     0.000 S
ATOM     51   O  IDS C   3       6.309   8.822  23.3760  0.00  0.00     0.000 OA
ATOM     52   O  IDS C   3       5.916   7.058  21.7780  0.00  0.00     0.000 OA
ATOM     53   O  IDS C   3       5.720   9.358  21.0990  0.00  0.00     0.000 OA
ENDBRANCH 42 49
BRANCH 45 54
ATOM     54   C  IDS C   3      12.300   8.594  19.8370  0.00  0.00     0.000 C
ATOM     55   O  IDS C   3      13.324   9.122  20.1850  0.00  0.00     0.000 OA
ATOM     56   O  IDS C   3      11.983   8.580  18.6640  0.00  0.00     0.000 OA
ENDBRANCH 45 54
BRANCH 41 57
ATOM     57  O4  SGN C   4       9.925   5.534  21.6770  0.00  0.00     0.000 O
BRANCH 57 61
ATOM     58  C1  SGN C   4      11.224   1.735  20.4890  0.00  0.00     0.000 C
ATOM     59  C2  SGN C   4      12.215   2.894  20.3010  0.00  0.00     0.000 C
ATOM     60  C3  SGN C   4      11.801   4.118  21.1290  0.00  0.00     0.000 C
ATOM     61  C4  SGN C   4      10.366   4.492  20.8000  0.00  0.00     0.000 C
ATOM     62  C5  SGN C   4       9.443   3.288  20.9800  0.00  0.00     0.000 C
ATOM     63  O5  SGN C   4       9.905   2.173  20.1940  0.00  0.00     0.000 O
BRANCH 59 66
ATOM     64   N  SGN C   4      13.446   2.184  19.9370  0.00  0.00     0.000 N
ATOM     66  HD  SGN C   4      12.752   2.480  20.3620  0.00  0.00     0.000 HD
ATOM     66   O  SGN C   4      15.847   1.783  20.0310  0.00  0.00     0.000 OA
ATOM     67   O  SGN C   4      14.989   4.086  19.9780  0.00  0.00     0.000 OA
ATOM     68   S  SGN C   4      14.847   2.641  20.5700  0.00  0.00     0.000 S
ATOM     69   O  SGN C   4      14.694   2.733  21.9780  0.00  0.00     0.000 OA
ENDBRANCH 59 66
BRANCH 62 70
ATOM     70   C  SGN C   4       8.036   3.595  20.5310  0.00  0.00     0.000 C
ATOM     71   S  SGN C   4       6.185   2.860  18.9180  0.00  0.00     0.000 S
ATOM     72   O  SGN C   4       5.223   2.965  19.9970  0.00  0.00     0.000 OA
ATOM     73   O  SGN C   4       6.355   4.094  18.1790  0.00  0.00     0.000 OA
ATOM     74   O  SGN C   4       5.987   1.700  18.0790  0.00  0.00     0.000 OA
ATOM     75   O  SGN C   4       7.571   2.576  19.6380  0.00  0.00     0.000 O
ENDBRANCH 62 70
ENDBRANCH 57 61
ENDBRANCH 41 57
ENDBRANCH 40 44
ENDBRANCH 20 40
ENDBRANCH 19 23
ENDBRANCH 1 19
TORSDOF 14
ENDMDL
MODEL 29
REMARK VINA RESULT:      -1.9      7.214     11.424
ROOT
ATOM      1  C1  IDS C   1      16.934  13.169  31.9590  0.00  0.00     0.000 C
ATOM      2  C2  IDS C   1      17.256  12.676  33.3580  0.00  0.00     0.000 C
ATOM      3  C3  IDS C   1      17.226  11.153  33.4150  0.00  0.00     0.000 C
ATOM      4  C4  IDS C   1      18.086  10.542  32.3080  0.00  0.00     0.000 C
ATOM      5  C5  IDS C   1      17.740  11.183  30.9490  0.00  0.00     0.000 C
ATOM      6  O5  IDS C   1      17.850  12.600  31.0240  0.00  0.00     0.000 O
ATOM      7   O  IDS C   1      15.875  10.699  33.3060  0.00  0.00     0.000 O
ATOM      9  HD  IDS C   1      16.300  10.015  32.9870  0.00  0.00     0.000 HD
ATOM      9   O  IDS C   1      19.470  10.780  32.6090  0.00  0.00     0.000 O
ATOM     11  HD  IDS C   1      19.895  10.096  32.2890  0.00  0.00     0.000 HD
ENDROOT
BRANCH 2 11
ATOM     11   O  IDS C   1      18.613  13.113  33.7550  0.00  0.00     0.000 O
ATOM     12   S  IDS C   1      18.810  14.235  34.8760  0.00  0.00     0.000 S
ATOM     13   O  IDS C   1      20.024  13.802  35.5320  0.00  0.00     0.000 OA
ATOM     14   O  IDS C   1      17.665  14.241  35.7540  0.00  0.00     0.000 OA
ATOM     15   O  IDS C   1      18.965  15.463  34.1360  0.00  0.00     0.000 OA
ENDBRANCH 2 11
BRANCH 5 16
ATOM     16   C  IDS C   1      18.635  10.709  29.8180  0.00  0.00     0.000 C
ATOM     17   O  IDS C   1      18.399  11.086  28.6890  0.00  0.00     0.000 OA
ATOM     18   O  IDS C   1      19.550   9.962  30.0290  0.00  0.00     0.000 OA
ENDBRANCH 5 16
BRANCH 1 19
ATOM     19  O4  SGN C   2      15.658  13.223  31.5670  0.00  0.00     0.000 O
BRANCH 19 23
ATOM     20  C1  SGN C   2      12.906  15.185  29.1170  0.00  0.00     0.000 C
ATOM     21  C2  SGN C   2      13.902  14.252  28.4180  0.00  0.00     0.000 C
ATOM     22  C3  SGN C   2      14.524  13.304  29.4390  0.00  0.00     0.000 C
ATOM     23  C4  SGN C   2      15.183  14.110  30.5530  0.00  0.00     0.000 C
ATOM     24  C5  SGN C   2      14.169  15.086  31.1570  0.00  0.00     0.000 C
ATOM     25  O5  SGN C   2      13.603  15.906  30.1190  0.00  0.00     0.000 O
ATOM     26   O  SGN C   2      15.464  12.440  28.8100  0.00  0.00     0.000 O
ATOM     28  HD  SGN C   2      15.964  11.911  28.3410  0.00  0.00     0.000 HD
BRANCH 21 30
ATOM     28   N  SGN C   2      13.006  14.575  27.2990  0.00  0.00     0.000 N
ATOM     30  HD  SGN C   2      12.428  13.978  27.0570  0.00  0.00     0.000 HD
ATOM     30   S  SGN C   2      13.360  14.139  25.8010  0.00  0.00     0.000 S
ATOM     31   O  SGN C   2      13.597  12.737  25.8630  0.00  0.00     0.000 OA
ATOM     32   O  SGN C   2      12.361  14.650  24.9370  0.00  0.00     0.000 OA
ATOM     33   O  SGN C   2      14.683  14.916  25.4810  0.00  0.00     0.000 OA
ENDBRANCH 21 30
BRANCH 24 34
ATOM     34   C  SGN C   2      14.769  16.033  32.1700  0.00  0.00     0.000 C
ATOM     35   O  SGN C   2      14.393  15.604  33.4900  0.00  0.00     0.000 O
ATOM     36   S  SGN C   2      14.501  16.683  34.6620  0.00  0.00     0.000 S
ATOM     37   O  SGN C   2      13.732  17.818  34.1900  0.00  0.00     0.000 OA
ATOM     38   O  SGN C   2      13.934  16.050  35.8280  0.00  0.00     0.000 OA
ATOM     39   O  SGN C   2      15.916  16.940  34.7690  0.00  0.00     0.000 OA
ENDBRANCH 24 34
BRANCH 20 40
ATOM     40  O4  IDS C   3      11.818  14.635  29.6500  0.00  0.00     0.000 O
BRANCH 40 44
ATOM     41  C1  IDS C   3       8.640  13.197  30.1620  0.00  0.00     0.000 C
ATOM     42  C2  IDS C   3       9.159  13.508  28.7610  0.00  0.00     0.000 C
ATOM     43  C3  IDS C   3       9.631  14.958  28.6790  0.00  0.00     0.000 C
ATOM     44  C4  IDS C   3      10.569  15.310  29.8230  0.00  0.00     0.000 C
ATOM     45  C5  IDS C   3       9.936  14.895  31.1680  0.00  0.00     0.000 C
ATOM     46  O5  IDS C   3       9.631  13.499  31.1410  0.00  0.00     0.000 O
ATOM     47   O  IDS C   3       8.501  15.826  28.6940  0.00  0.00     0.000 O
ATOM     49  HD  IDS C   3       9.029  15.260  28.3050  0.00  0.00     0.000 HD
BRANCH 42 49
ATOM     49   O  IDS C   3      10.297  12.620  28.4300  0.00  0.00     0.000 O
ATOM     50   S  IDS C   3      10.153  11.555  27.2410  0.00  0.00     0.000 S
ATOM     51   O  IDS C   3      10.169  12.379  26.0520  0.00  0.00     0.000 OA
ATOM     52   O  IDS C   3       8.907  10.823  27.3960  0.00  0.00     0.000 OA
ATOM     53   O  IDS C   3      11.308  10.689  27.3410  0.00  0.00     0.000 OA
ENDBRANCH 42 49
BRANCH 45 54
ATOM     54   C  IDS C   3      10.829  15.176  32.3660  0.00  0.00     0.000 C
ATOM     55   O  IDS C   3      11.136  16.310  32.6280  0.00  0.00     0.000 OA
ATOM     56   O  IDS C   3      11.242  14.256  33.0440  0.00  0.00     0.000 OA
ENDBRANCH 45 54
BRANCH 41 57
ATOM     57  O4  SGN C   4       7.405  13.707  30.2440  0.00  0.00     0.000 O
BRANCH 57 61
ATOM     58  C1  SGN C   4       3.976  13.224  32.5980  0.00  0.00     0.000 C
ATOM     59  C2  SGN C   4       5.246  13.707  33.3170  0.00  0.00     0.000 C
ATOM     60  C3  SGN C   4       6.285  14.231  32.3160  0.00  0.00     0.000 C
ATOM     61  C4  SGN C   4       6.555  13.170  31.2620  0.00  0.00     0.000 C
ATOM     62  C5  SGN C   4       5.249  12.716  30.6120  0.00  0.00     0.000 C
ATOM     63  O5  SGN C   4       4.316  12.262  31.6100  0.00  0.00     0.000 O
BRANCH 59 66
ATOM     64   N  SGN C   4       4.772  14.036  34.6650  0.00  0.00     0.000 N
ATOM     66  HD  SGN C   4       4.879  14.004  33.8060  0.00  0.00     0.000 HD
ATOM     66   O  SGN C   4       4.565  15.476  36.6190  0.00  0.00     0.000 OA
ATOM     67   O  SGN C   4       6.711  15.324  35.4290  0.00  0.00     0.000 OA
ATOM     68   S  SGN C   4       5.151  15.450  35.3220  0.00  0.00     0.000 S
ATOM     69   O  SGN C   4       4.833  16.474  34.3930  0.00  0.00     0.000 OA
ENDBRANCH 59 66
BRANCH 62 70
ATOM     70   C  SGN C   4       5.474  11.569  29.6590  0.00  0.00     0.000 C
ATOM     71   S  SGN C   4       5.374   9.016  29.4530  0.00  0.00     0.000 S
ATOM     72   O  SGN C   4       4.703   9.159  28.1760  0.00  0.00     0.000 OA
ATOM     73   O  SGN C   4       6.819   8.980  29.3410  0.00  0.00     0.000 OA
ATOM     74   O  SGN C   4       4.828   7.963  30.2780  0.00  0.00     0.000 OA
ATOM     75   O  SGN C   4       5.021  10.345  30.2480  0.00  0.00     0.000 O
ENDBRANCH 62 70
ENDBRANCH 57 61
ENDBRANCH 41 57
ENDBRANCH 40 44
ENDBRANCH 20 40
ENDBRANCH 19 23
ENDBRANCH 1 19
TORSDOF 14
ENDMDL
MODEL 30
REMARK VINA RESULT:      -1.9     13.237     18.980
ROOT
ATOM      1  C1  IDS C   1      28.224   8.450  34.1840  0.00  0.00     0.000 C
ATOM      2  C2  IDS C   1      28.732   9.535  33.2520  0.00  0.00     0.000 C
ATOM      3  C3  IDS C   1      28.959  10.837  34.0100  0.00  0.00     0.000 C
ATOM      4  C4  IDS C   1      29.818  10.609  35.2540  0.00  0.00     0.000 C
ATOM      5  C5  IDS C   1      29.265   9.427  36.0750  0.00  0.00     0.000 C
ATOM      6  O5  IDS C   1      29.144   8.267  35.2590  0.00  0.00     0.000 O
ATOM      7   O  IDS C   1      27.698  11.404  34.3710  0.00  0.00     0.000 O
ATOM      9  HD  IDS C   1      28.203  11.728  34.9950  0.00  0.00     0.000 HD
ATOM      9   O  IDS C   1      31.163  10.317  34.8440  0.00  0.00     0.000 O
ATOM     11  HD  IDS C   1      31.669  10.641  35.4680  0.00  0.00     0.000 HD
ENDROOT
BRANCH 2 11
ATOM     11   O  IDS C   1      30.025   9.132  32.6550  0.00  0.00     0.000 O
ATOM     12   S  IDS C   1      30.069   8.132  31.4090  0.00  0.00     0.000 S
ATOM     13   O  IDS C   1      31.206   8.622  30.6620  0.00  0.00     0.000 OA
ATOM     14   O  IDS C   1      28.829   8.226  30.6760  0.00  0.00     0.000 OA
ATOM     15   O  IDS C   1      30.285   6.832  31.9950  0.00  0.00     0.000 OA
ENDBRANCH 2 11
BRANCH 5 16
ATOM     16   C  IDS C   1      30.134   9.066  37.2660  0.00  0.00     0.000 C
ATOM     17   O  IDS C   1      30.813   9.931  37.7780  0.00  0.00     0.000 OA
ATOM     18   O  IDS C   1      30.164   7.943  37.6880  0.00  0.00     0.000 OA
ENDBRANCH 5 16
BRANCH 1 19
ATOM     19  O4  SGN C   2      26.929   8.432  34.5150  0.00  0.00     0.000 O
BRANCH 19 23
ATOM     20  C1  SGN C   2      23.519   6.051  34.8630  0.00  0.00     0.000 C
ATOM     21  C2  SGN C   2      24.582   5.888  35.9560  0.00  0.00     0.000 C
ATOM     22  C3  SGN C   2      25.523   7.090  35.9430  0.00  0.00     0.000 C
ATOM     23  C4  SGN C   2      26.145   7.239  34.5590  0.00  0.00     0.000 C
ATOM     24  C5  SGN C   2      25.043   7.309  33.4990  0.00  0.00     0.000 C
ATOM     25  O5  SGN C   2      24.181   6.162  33.6140  0.00  0.00     0.000 O
ATOM     26   O  SGN C   2      26.526   6.949  36.9420  0.00  0.00     0.000 O
ATOM     28  HD  SGN C   2      27.056   6.819  37.6140  0.00  0.00     0.000 HD
BRANCH 21 30
ATOM     28   N  SGN C   2      23.494   5.075  36.5150  0.00  0.00     0.000 N
ATOM     30  HD  SGN C   2      23.023   5.414  37.1580  0.00  0.00     0.000 HD
ATOM     30   S  SGN C   2      23.720   4.167  37.8140  0.00  0.00     0.000 S
ATOM     31   O  SGN C   2      24.246   5.048  38.8010  0.00  0.00     0.000 OA
ATOM     32   O  SGN C   2      22.529   3.446  38.0710  0.00  0.00     0.000 OA
ATOM     33   O  SGN C   2      24.800   3.124  37.3650  0.00  0.00     0.000 OA
ENDBRANCH 21 30
BRANCH 24 34
ATOM     34   C  SGN C   2      25.565   7.309  32.0810  0.00  0.00     0.000 C
ATOM     35   O  SGN C   2      24.936   6.240  31.3520  0.00  0.00     0.000 O
ATOM     36   S  SGN C   2      25.657   5.753  30.0130  0.00  0.00     0.000 S
ATOM     37   O  SGN C   2      27.015   5.446  30.4170  0.00  0.00     0.000 OA
ATOM     38   O  SGN C   2      24.915   4.597  29.5700  0.00  0.00     0.000 OA
ATOM     39   O  SGN C   2      25.551   6.886  29.1280  0.00  0.00     0.000 OA
ENDBRANCH 24 34
BRANCH 20 40
ATOM     40  O4  IDS C   3      22.653   7.054  34.9910  0.00  0.00     0.000 O
BRANCH 40 44
ATOM     41  C1  IDS C   3      19.812   8.887  35.9890  0.00  0.00     0.000 C
ATOM     42  C2  IDS C   3      20.042   7.453  36.4590  0.00  0.00     0.000 C
ATOM     43  C3  IDS C   3      20.310   6.540  35.2650  0.00  0.00     0.000 C
ATOM     44  C4  IDS C   3      21.378   7.113  34.3460  0.00  0.00     0.000 C
ATOM     45  C5  IDS C   3      21.039   8.577  33.9960  0.00  0.00     0.000 C
ATOM     46  O5  IDS C   3      20.910   9.337  35.1990  0.00  0.00     0.000 O
ATOM     47   O  IDS C   3      19.100   6.343  34.5390  0.00  0.00     0.000 O
ATOM     49  HD  IDS C   3      19.620   6.200  35.2160  0.00  0.00     0.000 HD
BRANCH 42 49
ATOM     49   O  IDS C   3      21.209   7.397  37.3700  0.00  0.00     0.000 O
ATOM     50   S  IDS C   3      20.980   7.171  38.9390  0.00  0.00     0.000 S
ATOM     51   O  IDS C   3      20.574   5.786  39.0210  0.00  0.00     0.000 OA
ATOM     52   O  IDS C   3      19.951   8.083  39.4130  0.00  0.00     0.000 OA
ATOM     53   O  IDS C   3      22.259   7.422  39.5680  0.00  0.00     0.000 OA
ENDBRANCH 42 49
BRANCH 45 54
ATOM     54   C  IDS C   3      22.081   9.240  33.1090  0.00  0.00     0.000 C
ATOM     55   O  IDS C   3      22.680  10.204  33.5110  0.00  0.00     0.000 OA
ATOM     56   O  IDS C   3      22.293   8.807  31.9930  0.00  0.00     0.000 OA
ENDBRANCH 45 54
BRANCH 41 57
ATOM     57  O4  SGN C   4      18.555   8.952  35.5320  0.00  0.00     0.000 O
BRANCH 57 61
ATOM     58  C1  SGN C   4      15.935  11.846  34.0200  0.00  0.00     0.000 C
ATOM     59  C2  SGN C   4      17.089  11.411  33.1020  0.00  0.00     0.000 C
ATOM     60  C3  SGN C   4      17.711  10.092  33.5810  0.00  0.00     0.000 C
ATOM     61  C4  SGN C   4      18.116  10.222  35.0390  0.00  0.00     0.000 C
ATOM     62  C5  SGN C   4      16.931  10.685  35.8860  0.00  0.00     0.000 C
ATOM     63  O5  SGN C   4      16.384  11.911  35.3660  0.00  0.00     0.000 O
BRANCH 59 66
ATOM     64   N  SGN C   4      16.492  11.486  31.7650  0.00  0.00     0.000 N
ATOM     66  HD  SGN C   4      16.983  11.272  32.4450  0.00  0.00     0.000 HD
ATOM     66   O  SGN C   4      16.470  12.122  29.4130  0.00  0.00     0.000 OA
ATOM     67   O  SGN C   4      17.372  13.672  31.0950  0.00  0.00     0.000 OA
ATOM     68   S  SGN C   4      17.295  12.196  30.5710  0.00  0.00     0.000 S
ATOM     69   O  SGN C   4      18.605  11.653  30.5280  0.00  0.00     0.000 OA
ENDBRANCH 59 66
BRANCH 62 70
ATOM     70   C  SGN C   4      17.340  10.950  37.3130  0.00  0.00     0.000 C
ATOM     71   S  SGN C   4      16.707  12.258  39.4250  0.00  0.00     0.000 S
ATOM     72   O  SGN C   4      16.930  11.063  40.2150  0.00  0.00     0.000 OA
ATOM     73   O  SGN C   4      17.897  13.070  39.2640  0.00  0.00     0.000 OA
ATOM     74   O  SGN C   4      15.540  13.008  39.8280  0.00  0.00     0.000 OA
ATOM     75   O  SGN C   4      16.334  11.723  37.9770  0.00  0.00     0.000 O
ENDBRANCH 62 70
ENDBRANCH 57 61
ENDBRANCH 41 57
ENDBRANCH 40 44
ENDBRANCH 20 40
ENDBRANCH 19 23
ENDBRANCH 1 19
TORSDOF 14
ENDMDL
MODEL 31
REMARK VINA RESULT:      -1.8      6.567     10.998
ROOT
ATOM      1  C1  IDS C   1      13.322  20.005  22.1240  0.00  0.00     0.000 C
ATOM      2  C2  IDS C   1      13.414  20.230  20.6250  0.00  0.00     0.000 C
ATOM      3  C3  IDS C   1      12.089  19.902  19.9470  0.00  0.00     0.000 C
ATOM      4  C4  IDS C   1      10.926  20.619  20.6320  0.00  0.00     0.000 C
ATOM      5  C5  IDS C   1      10.986  20.399  22.1570  0.00  0.00     0.000 C
ATOM      6  O5  IDS C   1      12.258  20.785  22.6660  0.00  0.00     0.000 O
ATOM      7   O  IDS C   1      11.884  18.488  19.9630  0.00  0.00     0.000 O
ATOM      9  HD  IDS C   1      11.065  18.768  19.9380  0.00  0.00     0.000 HD
ATOM      9   O  IDS C   1      11.013  22.024  20.3500  0.00  0.00     0.000 O
ATOM     11  HD  IDS C   1      10.194  22.305  20.3240  0.00  0.00     0.000 HD
ENDROOT
BRANCH 2 11
ATOM     11   O  IDS C   1      13.725  21.649  20.3400  0.00  0.00     0.000 O
ATOM     12   S  IDS C   1      14.924  22.037  19.3580  0.00  0.00     0.000 S
ATOM     13   O  IDS C   1      14.418  23.230  18.7140  0.00  0.00     0.000 OA
ATOM     14   O  IDS C   1      15.155  20.953  18.4330  0.00  0.00     0.000 OA
ATOM     15   O  IDS C   1      16.043  22.287  20.2310  0.00  0.00     0.000 OA
ENDBRANCH 2 11
BRANCH 5 16
ATOM     16   C  IDS C   1       9.928  21.177  22.9170  0.00  0.00     0.000 C
ATOM     17   O  IDS C   1      10.104  22.360  23.1190  0.00  0.00     0.000 OA
ATOM     18   O  IDS C   1       8.940  20.632  23.3280  0.00  0.00     0.000 OA
ENDBRANCH 5 16
BRANCH 1 19
ATOM     19  O4  SGN C   2      13.436  18.762  22.6010  0.00  0.00     0.000 O
BRANCH 19 23
ATOM     20  C1  SGN C   2      14.638  16.456  25.8670  0.00  0.00     0.000 C
ATOM     21  C2  SGN C   2      13.265  17.129  25.9730  0.00  0.00     0.000 C
ATOM     22  C3  SGN C   2      12.789  17.551  24.5850  0.00  0.00     0.000 C
ATOM     23  C4  SGN C   2      13.825  18.467  23.9440  0.00  0.00     0.000 C
ATOM     24  C5  SGN C   2      15.195  17.782  23.9430  0.00  0.00     0.000 C
ATOM     25  O5  SGN C   2      15.540  17.380  25.2810  0.00  0.00     0.000 O
ATOM     26   O  SGN C   2      11.521  18.192  24.6660  0.00  0.00     0.000 O
ATOM     28  HD  SGN C   2      10.725  18.506  24.7940  0.00  0.00     0.000 HD
BRANCH 21 30
ATOM     28   N  SGN C   2      12.106  16.544  26.6610  0.00  0.00     0.000 N
ATOM     30  HD  SGN C   2      11.496  17.083  26.9570  0.00  0.00     0.000 HD
ATOM     30   S  SGN C   2      12.071  16.406  28.2540  0.00  0.00     0.000 S
ATOM     31   O  SGN C   2      12.342  17.712  28.7510  0.00  0.00     0.000 OA
ATOM     32   O  SGN C   2      10.874  15.744  28.6210  0.00  0.00     0.000 OA
ATOM     33   O  SGN C   2      13.253  15.430  28.5770  0.00  0.00     0.000 OA
ENDBRANCH 21 30
BRANCH 24 34
ATOM     34   C  SGN C   2      16.317  18.670  23.4610  0.00  0.00     0.000 C
ATOM     35   O  SGN C   2      17.552  18.223  24.0490  0.00  0.00     0.000 O
ATOM     36   S  SGN C   2      18.763  19.263  24.0700  0.00  0.00     0.000 S
ATOM     37   O  SGN C   2      18.222  20.447  24.7090  0.00  0.00     0.000 OA
ATOM     38   O  SGN C   2      19.810  18.626  24.8320  0.00  0.00     0.000 OA
ATOM     39   O  SGN C   2      19.088  19.448  22.6770  0.00  0.00     0.000 OA
ENDBRANCH 24 34
BRANCH 20 40
ATOM     40  O4  IDS C   3      14.708  15.300  25.2120  0.00  0.00     0.000 O
BRANCH 40 44
ATOM     41  C1  IDS C   3      14.407  11.820  24.7320  0.00  0.00     0.000 C
ATOM     42  C2  IDS C   3      14.072  12.474  26.0700  0.00  0.00     0.000 C
ATOM     43  C3  IDS C   3      15.231  13.351  26.5370  0.00  0.00     0.000 C
ATOM     44  C4  IDS C   3      15.700  14.295  25.4410  0.00  0.00     0.000 C
ATOM     45  C5  IDS C   3      15.951  13.505  24.1400  0.00  0.00     0.000 C
ATOM     46  O5  IDS C   3      14.760  12.808  23.7680  0.00  0.00     0.000 O
ATOM     47   O  IDS C   3      16.311  12.523  26.9600  0.00  0.00     0.000 O
ATOM     49  HD  IDS C   3      15.530  12.882  27.0700  0.00  0.00     0.000 HD
BRANCH 42 49
ATOM     49   O  IDS C   3      12.862  13.318  25.9360  0.00  0.00     0.000 O
ATOM     50   S  IDS C   3      11.434  12.729  26.3600  0.00  0.00     0.000 S
ATOM     51   O  IDS C   3      11.507  12.683  27.8030  0.00  0.00     0.000 OA
ATOM     52   O  IDS C   3      11.258  11.413  25.7680  0.00  0.00     0.000 OA
ATOM     53   O  IDS C   3      10.453  13.678  25.8750  0.00  0.00     0.000 OA
ENDBRANCH 42 49
BRANCH 45 54
ATOM     54   C  IDS C   3      16.387  14.383  22.9770  0.00  0.00     0.000 C
ATOM     55   O  IDS C   3      15.687  14.471  22.0010  0.00  0.00     0.000 OA
ATOM     56   O  IDS C   3      17.446  14.978  23.0290  0.00  0.00     0.000 OA
ENDBRANCH 45 54
BRANCH 41 57
ATOM     57  O4  SGN C   4      15.214  10.785  24.9930  0.00  0.00     0.000 O
BRANCH 57 61
ATOM     58  C1  SGN C   4      16.209   7.148  23.1740  0.00  0.00     0.000 C
ATOM     59  C2  SGN C   4      17.030   8.378  22.7550  0.00  0.00     0.000 C
ATOM     60  C3  SGN C   4      16.862   9.525  23.7600  0.00  0.00     0.000 C
ATOM     61  C4  SGN C   4      15.384   9.823  23.9470  0.00  0.00     0.000 C
ATOM     62  C5  SGN C   4      14.626   8.553  24.3330  0.00  0.00     0.000 C
ATOM     63  O5  SGN C   4      14.850   7.514  23.3610  0.00  0.00     0.000 O
BRANCH 59 66
ATOM     64   N  SGN C   4      18.377   7.843  22.5300  0.00  0.00     0.000 N
ATOM     66  HD  SGN C   4      17.708   8.367  22.6950  0.00  0.00     0.000 HD
ATOM     66   O  SGN C   4      20.411   7.520  21.2290  0.00  0.00     0.000 OA
ATOM     67   O  SGN C   4      18.221   7.470  20.1140  0.00  0.00     0.000 OA
ATOM     68   S  SGN C   4      19.149   8.175  21.1630  0.00  0.00     0.000 S
ATOM     69   O  SGN C   4      19.102   9.577  20.9510  0.00  0.00     0.000 OA
ENDBRANCH 59 66
BRANCH 62 70
ATOM     70   C  SGN C   4      13.138   8.793  24.3940  0.00  0.00     0.000 C
ATOM     71   S  SGN C   4      10.917   8.241  23.2400  0.00  0.00     0.000 S
ATOM     72   O  SGN C   4      10.323   7.984  24.5370  0.00  0.00     0.000 OA
ATOM     73   O  SGN C   4      10.805   9.624  22.8220  0.00  0.00     0.000 OA
ATOM     74   O  SGN C   4      10.522   7.291  22.2250  0.00  0.00     0.000 OA
ATOM     75   O  SGN C   4      12.467   7.960  23.4410  0.00  0.00     0.000 O
ENDBRANCH 62 70
ENDBRANCH 57 61
ENDBRANCH 41 57
ENDBRANCH 40 44
ENDBRANCH 20 40
ENDBRANCH 19 23
ENDBRANCH 1 19
TORSDOF 14
ENDMDL
MODEL 32
REMARK VINA RESULT:      -1.0     13.650     19.436
ROOT
ATOM      1  C1  IDS C   1      11.593   6.276  46.2590  0.00  0.00     0.000 C
ATOM      2  C2  IDS C   1      11.914   7.457  47.1580  0.00  0.00     0.000 C
ATOM      3  C3  IDS C   1      10.912   8.585  46.9480  0.00  0.00     0.000 C
ATOM      4  C4  IDS C   1       9.475   8.073  47.0530  0.00  0.00     0.000 C
ATOM      5  C5  IDS C   1       9.289   6.821  46.1740  0.00  0.00     0.000 C
ATOM      6  O5  IDS C   1      10.259   5.832  46.5020  0.00  0.00     0.000 O
ATOM      7   O  IDS C   1      11.135   9.189  45.6730  0.00  0.00     0.000 O
ATOM      9  HD  IDS C   1      10.293   9.357  45.7840  0.00  0.00     0.000 HD
ATOM      9   O  IDS C   1       9.198   7.740  48.4220  0.00  0.00     0.000 O
ATOM     11  HD  IDS C   1       8.356   7.907  48.5330  0.00  0.00     0.000 HD
ENDROOT
BRANCH 2 11
ATOM     11   O  IDS C   1      11.843   7.050  48.5790  0.00  0.00     0.000 O
ATOM     12   S  IDS C   1      13.073   7.314  49.5640  0.00  0.00     0.000 S
ATOM     13   O  IDS C   1      12.408   7.591  50.8180  0.00  0.00     0.000 OA
ATOM     14   O  IDS C   1      13.845   8.432  49.0760  0.00  0.00     0.000 OA
ATOM     15   O  IDS C   1      13.809   6.074  49.5660  0.00  0.00     0.000 OA
ENDBRANCH 2 11
BRANCH 5 16
ATOM     16   C  IDS C   1       7.917   6.187  46.3150  0.00  0.00     0.000 C
ATOM     17   O  IDS C   1       7.665   5.557  47.3200  0.00  0.00     0.000 OA
ATOM     18   O  IDS C   1       7.098   6.292  45.4450  0.00  0.00     0.000 OA
ENDBRANCH 5 16
BRANCH 1 19
ATOM     19  O4  SGN C   2      11.971   6.315  44.9770  0.00  0.00     0.000 O
BRANCH 19 23
ATOM     20  C1  SGN C   2      13.211   4.026  41.7140  0.00  0.00     0.000 C
ATOM     21  C2  SGN C   2      11.705   4.045  42.0050  0.00  0.00     0.000 C
ATOM     22  C3  SGN C   2      11.370   5.227  42.9100  0.00  0.00     0.000 C
ATOM     23  C4  SGN C   2      12.197   5.146  44.1880  0.00  0.00     0.000 C
ATOM     24  C5  SGN C   2      13.684   5.041  43.8390  0.00  0.00     0.000 C
ATOM     25  O5  SGN C   2      13.899   3.930  42.9500  0.00  0.00     0.000 O
ATOM     26   O  SGN C   2       9.977   5.251  43.2030  0.00  0.00     0.000 O
ATOM     28  HD  SGN C   2       9.115   5.233  43.2750  0.00  0.00     0.000 HD
BRANCH 21 30
ATOM     28   N  SGN C   2      11.713   3.365  40.7020  0.00  0.00     0.000 N
ATOM     30  HD  SGN C   2      11.452   3.814  40.0090  0.00  0.00     0.000 HD
ATOM     30   S  SGN C   2      10.400   2.653  40.1300  0.00  0.00     0.000 S
ATOM     31   O  SGN C   2       9.384   3.650  40.1690  0.00  0.00     0.000 OA
ATOM     32   O  SGN C   2      10.727   2.024  38.9050  0.00  0.00     0.000 OA
ATOM     33   O  SGN C   2      10.104   1.514  41.1650  0.00  0.00     0.000 OA
ENDBRANCH 21 30
BRANCH 24 34
ATOM     34   C  SGN C   2      14.573   4.807  45.0370  0.00  0.00     0.000 C
ATOM     35   O  SGN C   2      15.492   5.907  45.1590  0.00  0.00     0.000 O
ATOM     36   S  SGN C   2      16.804   5.662  46.0350  0.00  0.00     0.000 S
ATOM     37   O  SGN C   2      17.410   4.473  45.4670  0.00  0.00     0.000 OA
ATOM     38   O  SGN C   2      17.608   6.849  45.8710  0.00  0.00     0.000 OA
ATOM     39   O  SGN C   2      16.301   5.480  47.3740  0.00  0.00     0.000 OA
ENDBRANCH 24 34
BRANCH 20 40
ATOM     40  O4  IDS C   3      13.714   5.036  41.0100  0.00  0.00     0.000 O
BRANCH 40 44
ATOM     41  C1  IDS C   3      14.630   7.250  38.4240  0.00  0.00     0.000 C
ATOM     42  C2  IDS C   3      13.702   6.066  38.1690  0.00  0.00     0.000 C
ATOM     43  C3  IDS C   3      14.331   4.776  38.6910  0.00  0.00     0.000 C
ATOM     44  C4  IDS C   3      14.828   4.930  40.1200  0.00  0.00     0.000 C
ATOM     45  C5  IDS C   3      15.710   6.191  40.2360  0.00  0.00     0.000 C
ATOM     46  O5  IDS C   3      14.967   7.333  39.8060  0.00  0.00     0.000 O
ATOM     47   O  IDS C   3      15.410   4.398  37.8390  0.00  0.00     0.000 O
ATOM     49  HD  IDS C   3      14.567   4.478  38.0200  0.00  0.00     0.000 HD
BRANCH 42 49
ATOM     49   O  IDS C   3      12.408   6.275  38.8600  0.00  0.00     0.000 O
ATOM     50   S  IDS C   3      11.066   6.437  37.9990  0.00  0.00     0.000 S
ATOM     51   O  IDS C   3      10.830   5.102  37.4960  0.00  0.00     0.000 OA
ATOM     52   O  IDS C   3      11.288   7.403  36.9360  0.00  0.00     0.000 OA
ATOM     53   O  IDS C   3      10.048   6.877  38.9300  0.00  0.00     0.000 OA
ENDBRANCH 42 49
BRANCH 45 54
ATOM     54   C  IDS C   3      16.218   6.442  41.6480  0.00  0.00     0.000 C
ATOM     55   O  IDS C   3      16.883   5.604  42.2000  0.00  0.00     0.000 OA
ATOM     56   O  IDS C   3      15.937   7.477  42.2180  0.00  0.00     0.000 OA
ENDBRANCH 45 54
BRANCH 41 57
ATOM     57  O4  SGN C   4      15.577   7.215  37.4790  0.00  0.00     0.000 O
BRANCH 57 61
ATOM     58  C1  SGN C   4      18.488   9.763  35.8770  0.00  0.00     0.000 C
ATOM     59  C2  SGN C   4      18.661   9.355  37.3490  0.00  0.00     0.000 C
ATOM     60  C3  SGN C   4      17.800   8.131  37.6900  0.00  0.00     0.000 C
ATOM     61  C4  SGN C   4      16.355   8.404  37.3050  0.00  0.00     0.000 C
ATOM     62  C5  SGN C   4      16.262   8.832  35.8410  0.00  0.00     0.000 C
ATOM     63  O5  SGN C   4      17.113   9.967  35.5900  0.00  0.00     0.000 O
BRANCH 59 66
ATOM     64   N  SGN C   4      20.102   9.608  37.4480  0.00  0.00     0.000 N
ATOM     66  HD  SGN C   4      19.327   9.225  37.4020  0.00  0.00     0.000 HD
ATOM     66   O  SGN C   4      22.223   9.730  38.6400  0.00  0.00     0.000 OA
ATOM     67   O  SGN C   4      20.158  10.501  39.7280  0.00  0.00     0.000 OA
ATOM     68   S  SGN C   4      20.854   9.403  38.8510  0.00  0.00     0.000 S
ATOM     69   O  SGN C   4      20.513   8.123  39.3580  0.00  0.00     0.000 OA
ENDBRANCH 59 66
BRANCH 62 70
ATOM     70   C  SGN C   4      14.858   9.238  35.4710  0.00  0.00     0.000 C
ATOM     71   S  SGN C   4      13.499  10.811  33.9710  0.00  0.00     0.000 S
ATOM     72   O  SGN C   4      12.630   9.705  33.6220  0.00  0.00     0.000 OA
ATOM     73   O  SGN C   4      13.062  11.536  35.1480  0.00  0.00     0.000 OA
ATOM     74   O  SGN C   4      13.828  11.663  32.8520  0.00  0.00     0.000 OA
ATOM     75   O  SGN C   4      14.883  10.134  34.3540  0.00  0.00     0.000 O
ENDBRANCH 62 70
ENDBRANCH 57 61
ENDBRANCH 41 57
ENDBRANCH 40 44
ENDBRANCH 20 40
ENDBRANCH 19 23
ENDBRANCH 1 19
TORSDOF 14
ENDMDL
MODEL 33
REMARK VINA RESULT:      -0.8      7.665     10.050
ROOT
ATOM      1  C1  IDS C   1      12.881  21.448  22.6600  0.00  0.00     0.000 C
ATOM      2  C2  IDS C   1      11.488  21.819  22.1830  0.00  0.00     0.000 C
ATOM      3  C3  IDS C   1      10.450  21.516  23.2570  0.00  0.00     0.000 C
ATOM      4  C4  IDS C   1      10.850  22.129  24.6000  0.00  0.00     0.000 C
ATOM      5  C5  IDS C   1      12.310  21.766  24.9380  0.00  0.00     0.000 C
ATOM      6  O5  IDS C   1      13.176  22.140  23.8720  0.00  0.00     0.000 O
ATOM      7   O  IDS C   1      10.291  20.102  23.3810  0.00  0.00     0.000 O
ATOM      9  HD  IDS C   1      10.067  20.358  24.1770  0.00  0.00     0.000 HD
ATOM      9   O  IDS C   1      10.721  23.557  24.5180  0.00  0.00     0.000 O
ATOM     11  HD  IDS C   1      10.497  23.813  25.3140  0.00  0.00     0.000 HD
ENDROOT
BRANCH 2 11
ATOM     11   O  IDS C   1      11.418  23.267  21.8860  0.00  0.00     0.000 O
ATOM     12   S  IDS C   1      10.978  23.781  20.4380  0.00  0.00     0.000 S
ATOM     13   O  IDS C   1      10.259  24.996  20.7500  0.00  0.00     0.000 OA
ATOM     14   O  IDS C   1      10.150  22.781  19.8070  0.00  0.00     0.000 OA
ATOM     15   O  IDS C   1      12.220  24.011  19.7430  0.00  0.00     0.000 OA
ENDBRANCH 2 11
BRANCH 5 16
ATOM     16   C  IDS C   1      12.816  22.434  26.2030  0.00  0.00     0.000 C
ATOM     17   O  IDS C   1      12.011  22.814  27.0260  0.00  0.00     0.000 OA
ATOM     18   O  IDS C   1      13.991  22.601  26.3830  0.00  0.00     0.000 OA
ENDBRANCH 5 16
BRANCH 1 19
ATOM     19  O4  SGN C   2      13.265  20.169  22.6100  0.00  0.00     0.000 O
BRANCH 19 23
ATOM     20  C1  SGN C   2      16.378  17.580  21.5960  0.00  0.00     0.000 C
ATOM     21  C2  SGN C   2      16.493  18.292  22.9490  0.00  0.00     0.000 C
ATOM     22  C3  SGN C   2      15.128  18.836  23.3630  0.00  0.00     0.000 C
ATOM     23  C4  SGN C   2      14.592  19.759  22.2750  0.00  0.00     0.000 C
ATOM     24  C5  SGN C   2      14.580  19.026  20.9310  0.00  0.00     0.000 C
ATOM     25  O5  SGN C   2      15.893  18.512  20.6440  0.00  0.00     0.000 O
ATOM     26   O  SGN C   2      15.220  19.515  24.6100  0.00  0.00     0.000 O
ATOM     28  HD  SGN C   2      15.348  19.848  25.3990  0.00  0.00     0.000 HD
BRANCH 21 30
ATOM     28   N  SGN C   2      17.926  17.968  22.9290  0.00  0.00     0.000 N
ATOM     30  HD  SGN C   2      18.153  17.144  22.7890  0.00  0.00     0.000 HD
ATOM     30   S  SGN C   2      18.675  17.442  24.2410  0.00  0.00     0.000 S
ATOM     31   O  SGN C   2      17.914  16.324  24.6870  0.00  0.00     0.000 OA
ATOM     32   O  SGN C   2      20.050  17.288  23.9410  0.00  0.00     0.000 OA
ATOM     33   O  SGN C   2      18.557  18.636  25.2490  0.00  0.00     0.000 OA
ENDBRANCH 21 30
BRANCH 24 34
ATOM     34   C  SGN C   2      14.202  19.907  19.7630  0.00  0.00     0.000 C
ATOM     35   O  SGN C   2      12.993  19.402  19.1690  0.00  0.00     0.000 O
ATOM     36   S  SGN C   2      12.671  19.866  17.6750  0.00  0.00     0.000 S
ATOM     37   O  SGN C   2      13.862  19.529  16.9200  0.00  0.00     0.000 OA
ATOM     38   O  SGN C   2      11.507  19.113  17.2770  0.00  0.00     0.000 OA
ATOM     39   O  SGN C   2      12.434  21.284  17.7940  0.00  0.00     0.000 OA
ENDBRANCH 24 34
BRANCH 20 40
ATOM     40  O4  IDS C   3      15.637  16.475  21.5440  0.00  0.00     0.000 O
BRANCH 40 44
ATOM     41  C1  IDS C   3      14.235  13.247  21.7530  0.00  0.00     0.000 C
ATOM     42  C2  IDS C   3      15.498  13.621  22.5250  0.00  0.00     0.000 C
ATOM     43  C3  IDS C   3      16.533  14.234  21.5860  0.00  0.00     0.000 C
ATOM     44  C4  IDS C   3      15.933  15.337  20.7300  0.00  0.00     0.000 C
ATOM     45  C5  IDS C   3      14.641  14.833  20.0520  0.00  0.00     0.000 C
ATOM     46  O5  IDS C   3      13.726  14.378  21.0510  0.00  0.00     0.000 O
ATOM     47   O  IDS C   3      17.078  13.214  20.7520  0.00  0.00     0.000 O
ATOM     49  HD  IDS C   3      17.001  13.626  21.5100  0.00  0.00     0.000 HD
BRANCH 42 49
ATOM     49   O  IDS C   3      15.175  14.606  23.5830  0.00  0.00     0.000 O
ATOM     50   S  IDS C   3      14.809  14.098  25.0580  0.00  0.00     0.000 S
ATOM     51   O  IDS C   3      16.078  13.633  25.5740  0.00  0.00     0.000 OA
ATOM     52   O  IDS C   3      13.820  13.036  24.9710  0.00  0.00     0.000 OA
ATOM     53   O  IDS C   3      14.303  15.255  25.7640  0.00  0.00     0.000 OA
ENDBRANCH 42 49
BRANCH 45 54
ATOM     54   C  IDS C   3      13.953  15.892  19.2050  0.00  0.00     0.000 C
ATOM     55   O  IDS C   3      14.577  16.478  18.3590  0.00  0.00     0.000 OA
ATOM     56   O  IDS C   3      12.781  16.153  19.3950  0.00  0.00     0.000 OA
ENDBRANCH 45 54
BRANCH 41 57
ATOM     57  O4  SGN C   4      14.489  12.094  21.1230  0.00  0.00     0.000 O
BRANCH 57 61
ATOM     58  C1  SGN C   4      12.211   8.895  19.6710  0.00  0.00     0.000 C
ATOM     59  C2  SGN C   4      11.562  10.287  19.6140  0.00  0.00     0.000 C
ATOM     60  C3  SGN C   4      12.612  11.395  19.7770  0.00  0.00     0.000 C
ATOM     61  C4  SGN C   4      13.412  11.154  21.0460  0.00  0.00     0.000 C
ATOM     62  C5  SGN C   4      14.002   9.744  21.0480  0.00  0.00     0.000 C
ATOM     63  O5  SGN C   4      12.966   8.761  20.8670  0.00  0.00     0.000 O
BRANCH 59 66
ATOM     64   N  SGN C   4      10.303  10.628  18.9450  0.00  0.00     0.000 N
ATOM     66  HD  SGN C   4      10.935  10.210  19.3640  0.00  0.00     0.000 HD
ATOM     66   O  SGN C   4       8.725  10.559  17.0900  0.00  0.00     0.000 OA
ATOM     67   O  SGN C   4      11.136  10.750  16.6440  0.00  0.00     0.000 OA
ATOM     68   S  SGN C   4      10.001  10.058  17.4760  0.00  0.00     0.000 S
ATOM     69   O  SGN C   4      10.224   8.657  17.4850  0.00  0.00     0.000 OA
ENDBRANCH 59 66
BRANCH 62 70
ATOM     70   C  SGN C   4      14.688   9.433  22.3540  0.00  0.00     0.000 C
ATOM     71   S  SGN C   4      14.936   7.642  24.1710  0.00  0.00     0.000 S
ATOM     72   O  SGN C   4      16.371   7.845  24.1560  0.00  0.00     0.000 OA
ATOM     73   O  SGN C   4      14.243   8.509  25.1040  0.00  0.00     0.000 OA
ATOM     74   O  SGN C   4      14.549   6.253  24.2710  0.00  0.00     0.000 OA
ATOM     75   O  SGN C   4      14.451   8.068  22.7210  0.00  0.00     0.000 O
ENDBRANCH 62 70
ENDBRANCH 57 61
ENDBRANCH 41 57
ENDBRANCH 40 44
ENDBRANCH 20 40
ENDBRANCH 19 23
ENDBRANCH 1 19
TORSDOF 14
ENDMDL
MODEL 34
REMARK VINA RESULT:      -0.5     17.199     21.854
ROOT
ATOM      1  C1  IDS C   1      11.055   6.129  49.0990  0.00  0.00     0.000 C
ATOM      2  C2  IDS C   1       9.788   5.323  48.8740  0.00  0.00     0.000 C
ATOM      3  C3  IDS C   1       9.951   3.902  49.3970  0.00  0.00     0.000 C
ATOM      4  C4  IDS C   1      10.463   3.900  50.8380  0.00  0.00     0.000 C
ATOM      5  C5  IDS C   1      11.692   4.822  50.9690  0.00  0.00     0.000 C
ATOM      6  O5  IDS C   1      11.389   6.126  50.4850  0.00  0.00     0.000 O
ATOM      7   O  IDS C   1      10.846   3.181  48.5480  0.00  0.00     0.000 O
ATOM      9  HD  IDS C   1      10.960   2.759  49.2960  0.00  0.00     0.000 HD
ATOM      9   O  IDS C   1       9.419   4.371  51.7050  0.00  0.00     0.000 O
ATOM     11  HD  IDS C   1       9.534   3.949  52.4520  0.00  0.00     0.000 HD
ENDROOT
BRANCH 2 11
ATOM     11   O  IDS C   1       8.654   5.941  49.5970  0.00  0.00     0.000 O
ATOM     12   S  IDS C   1       7.921   7.234  49.0090  0.00  0.00     0.000 S
ATOM     13   O  IDS C   1       6.550   7.021  49.4160  0.00  0.00     0.000 OA
ATOM     14   O  IDS C   1       8.085   7.266  47.5760  0.00  0.00     0.000 OA
ATOM     15   O  IDS C   1       8.553   8.344  49.6770  0.00  0.00     0.000 OA
ENDBRANCH 2 11
BRANCH 5 16
ATOM     16   C  IDS C   1      12.187   4.961  52.3970  0.00  0.00     0.000 C
ATOM     17   O  IDS C   1      12.726   5.996  52.7300  0.00  0.00     0.000 OA
ATOM     18   O  IDS C   1      12.065   4.061  53.1810  0.00  0.00     0.000 OA
ENDBRANCH 5 16
BRANCH 1 19
ATOM     19  O4  SGN C   2      12.077   5.981  48.2510  0.00  0.00     0.000 O
BRANCH 19 23
ATOM     20  C1  SGN C   2      14.905   8.015  45.9510  0.00  0.00     0.000 C
ATOM     21  C2  SGN C   2      15.261   7.781  47.4240  0.00  0.00     0.000 C
ATOM     22  C3  SGN C   2      14.371   6.683  48.0010  0.00  0.00     0.000 C
ATOM     23  C4  SGN C   2      12.906   7.062  47.8210  0.00  0.00     0.000 C
ATOM     24  C5  SGN C   2      12.626   7.370  46.3480  0.00  0.00     0.000 C
ATOM     25  O5  SGN C   2      13.537   8.381  45.8790  0.00  0.00     0.000 O
ATOM     26   O  SGN C   2      14.677   6.463  49.3730  0.00  0.00     0.000 O
ATOM     28  HD  SGN C   2      14.971   6.344  50.1790  0.00  0.00     0.000 HD
BRANCH 21 30
ATOM     28   N  SGN C   2      16.576   8.200  46.9220  0.00  0.00     0.000 N
ATOM     30  HD  SGN C   2      17.209   7.609  46.8980  0.00  0.00     0.000 HD
ATOM     30   S  SGN C   2      17.729   8.686  47.9190  0.00  0.00     0.000 S
ATOM     31   O  SGN C   2      17.868   7.637  48.8730  0.00  0.00     0.000 OA
ATOM     32   O  SGN C   2      18.845   9.095  47.1500  0.00  0.00     0.000 OA
ATOM     33   O  SGN C   2      17.136   9.973  48.5870  0.00  0.00     0.000 OA
ENDBRANCH 21 30
BRANCH 24 34
ATOM     34   C  SGN C   2      11.234   7.899  46.0920  0.00  0.00     0.000 C
ATOM     35   O  SGN C   2      11.333   9.205  45.4970  0.00  0.00     0.000 O
ATOM     36   S  SGN C   2      10.039  10.137  45.5750  0.00  0.00     0.000 S
ATOM     37   O  SGN C   2       9.698  10.177  46.9840  0.00  0.00     0.000 OA
ATOM     38   O  SGN C   2      10.449  11.417  45.0480  0.00  0.00     0.000 OA
ATOM     39   O  SGN C   2       9.067   9.455  44.7570  0.00  0.00     0.000 OA
ENDBRANCH 24 34
BRANCH 20 40
ATOM     40  O4  IDS C   3      15.139   7.023  45.0960  0.00  0.00     0.000 O
BRANCH 40 44
ATOM     41  C1  IDS C   3      16.659   4.674  42.9520  0.00  0.00     0.000 C
ATOM     42  C2  IDS C   3      17.489   5.630  43.8030  0.00  0.00     0.000 C
ATOM     43  C3  IDS C   3      17.025   7.069  43.5900  0.00  0.00     0.000 C
ATOM     44  C4  IDS C   3      15.517   7.201  43.7290  0.00  0.00     0.000 C
ATOM     45  C5  IDS C   3      14.814   6.143  42.8530  0.00  0.00     0.000 C
ATOM     46  O5  IDS C   3      15.270   4.840  43.2220  0.00  0.00     0.000 O
ATOM     47   O  IDS C   3      17.434   7.512  42.2980  0.00  0.00     0.000 O
ATOM     49  HD  IDS C   3      17.591   7.310  43.1260  0.00  0.00     0.000 HD
BRANCH 42 49
ATOM     49   O  IDS C   3      17.342   5.293  45.2380  0.00  0.00     0.000 O
ATOM     50   S  IDS C   3      18.564   4.618  46.0240  0.00  0.00     0.000 S
ATOM     51   O  IDS C   3      19.516   5.700  46.1520  0.00  0.00     0.000 OA
ATOM     52   O  IDS C   3      19.084   3.506  45.2450  0.00  0.00     0.000 OA
ATOM     53   O  IDS C   3      18.028   4.185  47.2970  0.00  0.00     0.000 OA
ENDBRANCH 42 49
BRANCH 45 54
ATOM     54   C  IDS C   3      13.298   6.179  42.9640  0.00  0.00     0.000 C
ATOM     55   O  IDS C   3      12.682   5.150  43.0640  0.00  0.00     0.000 OA
ATOM     56   O  IDS C   3      12.713   7.245  42.9340  0.00  0.00     0.000 OA
ENDBRANCH 45 54
BRANCH 41 57
ATOM     57  O4  SGN C   4      17.137   4.745  41.7030  0.00  0.00     0.000 O
BRANCH 57 61
ATOM     58  C1  SGN C   4      17.412   2.264  38.3430  0.00  0.00     0.000 C
ATOM     59  C2  SGN C   4      16.033   2.368  39.0140  0.00  0.00     0.000 C
ATOM     60  C3  SGN C   4      15.960   3.587  39.9440  0.00  0.00     0.000 C
ATOM     61  C4  SGN C   4      17.111   3.538  40.9350  0.00  0.00     0.000 C
ATOM     62  C5  SGN C   4      18.445   3.405  40.2010  0.00  0.00     0.000 C
ATOM     63  O5  SGN C   4      18.432   2.258  39.3310  0.00  0.00     0.000 O
BRANCH 59 66
ATOM     64   N  SGN C   4      14.979   2.384  37.9950  0.00  0.00     0.000 N
ATOM     66  HD  SGN C   4      15.408   2.395  38.7470  0.00  0.00     0.000 HD
ATOM     66   O  SGN C   4      13.139   1.400  36.7380  0.00  0.00     0.000 OA
ATOM     67   O  SGN C   4      15.106   0.038  37.3040  0.00  0.00     0.000 OA
ATOM     68   S  SGN C   4      14.050   1.092  37.7870  0.00  0.00     0.000 S
ATOM     69   O  SGN C   4      13.547   0.695  39.0520  0.00  0.00     0.000 OA
ENDBRANCH 59 66
BRANCH 62 70
ATOM     70   C  SGN C   4      19.591   3.220  41.1640  0.00  0.00     0.000 C
ATOM     71   S  SGN C   4      22.057   3.797  41.5630  0.00  0.00     0.000 S
ATOM     72   O  SGN C   4      21.741   4.131  42.9380  0.00  0.00     0.000 OA
ATOM     73   O  SGN C   4      22.401   2.402  41.3750  0.00  0.00     0.000 OA
ATOM     74   O  SGN C   4      22.985   4.715  40.9440  0.00  0.00     0.000 OA
ATOM     75   O  SGN C   4      20.702   4.033  40.7680  0.00  0.00     0.000 O
ENDBRANCH 62 70
ENDBRANCH 57 61
ENDBRANCH 41 57
ENDBRANCH 40 44
ENDBRANCH 20 40
ENDBRANCH 19 23
ENDBRANCH 1 19
TORSDOF 14
ENDMDL
MODEL 35
REMARK VINA RESULT:      -0.4     94.211     99.416
ROOT
ATOM      1  C1  IDS C   1      23.825  96.209  70.2870  0.00  0.00     0.000 C
ATOM      2  C2  IDS C   1      24.042  97.634  70.7640  0.00  0.00     0.000 C
ATOM      3  C3  IDS C   1      25.522  97.995  70.7340  0.00  0.00     0.000 C
ATOM      4  C4  IDS C   1      26.140  97.676  69.3730  0.00  0.00     0.000 C
ATOM      5  C5  IDS C   1      25.779  96.239  68.9470  0.00  0.00     0.000 C
ATOM      6  O5  IDS C   1      24.368  96.050  68.9770  0.00  0.00     0.000 O
ATOM      7   O  IDS C   1      26.205  97.291  71.7720  0.00  0.00     0.000 O
ATOM      9  HD  IDS C   1      26.849  97.402  71.2030  0.00  0.00     0.000 HD
ATOM      9   O  IDS C   1      25.633  98.603  68.4010  0.00  0.00     0.000 O
ATOM     11  HD  IDS C   1      26.276  98.714  67.8320  0.00  0.00     0.000 HD
ENDROOT
BRANCH 2 11
ATOM     11   O  IDS C   1      23.329  98.583  69.8790  0.00  0.00     0.000 O
ATOM     12   S  IDS C   1      22.080  99.419  70.4210  0.00  0.00     0.000 S
ATOM     13   O  IDS C   1      22.218 100.671  69.7110  0.00  0.00     0.000 OA
ATOM     14   O  IDS C   1      22.189  99.568  71.8520  0.00  0.00     0.000 OA
ATOM     15   O  IDS C   1      20.927  98.654  70.0160  0.00  0.00     0.000 OA
ENDBRANCH 2 11
BRANCH 5 16
ATOM     16   C  IDS C   1      26.262  95.888  67.5510  0.00  0.00     0.000 C
ATOM     17   O  IDS C   1      26.019  94.785  67.1090  0.00  0.00     0.000 OA
ATOM     18   O  IDS C   1      26.887  96.678  66.8990  0.00  0.00     0.000 OA
ENDBRANCH 5 16
BRANCH 1 19
ATOM     19  O4  SGN C   2      24.044  95.200  71.1360  0.00  0.00     0.000 O
BRANCH 19 23
ATOM     20  C1  SGN C   2      22.918  91.332  72.2290  0.00  0.00     0.000 C
ATOM     21  C2  SGN C   2      23.707  91.472  70.9220  0.00  0.00     0.000 C
ATOM     22  C3  SGN C   2      24.406  92.829  70.8840  0.00  0.00     0.000 C
ATOM     23  C4  SGN C   2      23.376  93.940  71.0500  0.00  0.00     0.000 C
ATOM     24  C5  SGN C   2      22.558  93.705  72.3230  0.00  0.00     0.000 C
ATOM     25  O5  SGN C   2      21.975  92.390  72.2920  0.00  0.00     0.000 O
ATOM     26   O  SGN C   2      25.131  92.982  69.6690  0.00  0.00     0.000 O
ATOM     28  HD  SGN C   2      25.599  92.967  68.9410  0.00  0.00     0.000 HD
BRANCH 21 30
ATOM     28   N  SGN C   2      24.116  90.075  71.1180  0.00  0.00     0.000 N
ATOM     30  HD  SGN C   2      24.950  89.875  70.9950  0.00  0.00     0.000 HD
ATOM     30   S  SGN C   2      24.193  89.053  69.8900  0.00  0.00     0.000 S
ATOM     31   O  SGN C   2      25.025  89.687  68.9240  0.00  0.00     0.000 OA
ATOM     32   O  SGN C   2      24.539  87.774  70.3900  0.00  0.00     0.000 OA
ATOM     33   O  SGN C   2      22.715  88.961  69.3780  0.00  0.00     0.000 OA
ENDBRANCH 21 30
BRANCH 24 34
ATOM     34   C  SGN C   2      21.413  94.675  72.4970  0.00  0.00     0.000 C
ATOM     35   O  SGN C   2      21.807  95.702  73.4240  0.00  0.00     0.000 O
ATOM     36   S  SGN C   2      20.639  96.544  74.1130  0.00  0.00     0.000 S
ATOM     37   O  SGN C   2      19.766  95.548  74.7030  0.00  0.00     0.000 OA
ATOM     38   O  SGN C   2      21.289  97.386  75.0880  0.00  0.00     0.000 OA
ATOM     39   O  SGN C   2      20.042  97.272  73.0200  0.00  0.00     0.000 OA
ENDBRANCH 24 34
BRANCH 20 40
ATOM     40  O4  IDS C   3      23.610  91.294  73.3650  0.00  0.00     0.000 O
BRANCH 40 44
ATOM     41  C1  IDS C   3      25.475  90.853  76.3240  0.00  0.00     0.000 C
ATOM     42  C2  IDS C   3      25.707  89.977  75.0970  0.00  0.00     0.000 C
ATOM     43  C3  IDS C   3      24.388  89.380  74.6130  0.00  0.00     0.000 C
ATOM     44  C4  IDS C   3      23.308  90.441  74.4720  0.00  0.00     0.000 C
ATOM     45  C5  IDS C   3      23.221  91.278  75.7650  0.00  0.00     0.000 C
ATOM     46  O5  IDS C   3      24.498  91.854  76.0470  0.00  0.00     0.000 O
ATOM     47   O  IDS C   3      23.961  88.372  75.5270  0.00  0.00     0.000 O
ATOM     49  HD  IDS C   3      24.470  88.665  74.8910  0.00  0.00     0.000 HD
BRANCH 42 49
ATOM     49   O  IDS C   3      26.293  90.781  73.9990  0.00  0.00     0.000 O
ATOM     50   S  IDS C   3      27.496  90.179  73.1290  0.00  0.00     0.000 S
ATOM     51   O  IDS C   3      26.851  89.160  72.3300  0.00  0.00     0.000 OA
ATOM     52   O  IDS C   3      28.509  89.633  74.0170  0.00  0.00     0.000 OA
ATOM     53   O  IDS C   3      28.003  91.279  72.3370  0.00  0.00     0.000 OA
ENDBRANCH 42 49
BRANCH 45 54
ATOM     54   C  IDS C   3      22.188  92.392  75.6930  0.00  0.00     0.000 C
ATOM     55   O  IDS C   3      22.527  93.532  75.8820  0.00  0.00     0.000 OA
ATOM     56   O  IDS C   3      21.025  92.127  75.4630  0.00  0.00     0.000 OA
ENDBRANCH 45 54
BRANCH 41 57
ATOM     57  O4  SGN C   4      25.350  90.032  77.3740  0.00  0.00     0.000 O
BRANCH 57 61
ATOM     58  C1  SGN C   4      25.204  90.299  81.5490  0.00  0.00     0.000 C
ATOM     59  C2  SGN C   4      24.045  90.947  80.7740  0.00  0.00     0.000 C
ATOM     60  C3  SGN C   4      23.993  90.438  79.3270  0.00  0.00     0.000 C
ATOM     61  C4  SGN C   4      25.347  90.641  78.6690  0.00  0.00     0.000 C
ATOM     62  C5  SGN C   4      26.452  89.999  79.5060  0.00  0.00     0.000 C
ATOM     63  O5  SGN C   4      26.425  90.504  80.8550  0.00  0.00     0.000 O
BRANCH 59 66
ATOM     64   N  SGN C   4      22.874  90.722  81.6280  0.00  0.00     0.000 N
ATOM     66  HD  SGN C   4      23.392  90.874  80.9510  0.00  0.00     0.000 HD
ATOM     66   O  SGN C   4      20.891  91.435  82.8490  0.00  0.00     0.000 OA
ATOM     67   O  SGN C   4      22.906  92.843  82.8540  0.00  0.00     0.000 OA
ATOM     68   S  SGN C   4      21.922  91.953  82.0170  0.00  0.00     0.000 S
ATOM     69   O  SGN C   4      21.575  92.643  80.8270  0.00  0.00     0.000 OA
ENDBRANCH 59 66
BRANCH 62 70
ATOM     70   C  SGN C   4      27.819  90.301  78.9450  0.00  0.00     0.000 C
ATOM     71   S  SGN C   4      29.271  92.168  77.9580  0.00  0.00     0.000 S
ATOM     72   O  SGN C   4      30.370  91.739  78.8000  0.00  0.00     0.000 OA
ATOM     73   O  SGN C   4      29.237  91.499  76.6730  0.00  0.00     0.000 OA
ATOM     74   O  SGN C   4      29.136  93.604  77.8710  0.00  0.00     0.000 OA
ATOM     75   O  SGN C   4      27.964  91.710  78.7340  0.00  0.00     0.000 O
ENDBRANCH 62 70
ENDBRANCH 57 61
ENDBRANCH 41 57
ENDBRANCH 40 44
ENDBRANCH 20 40
ENDBRANCH 19 23
ENDBRANCH 1 19
TORSDOF 14
ENDMDL
MODEL 36
REMARK VINA RESULT:      -0.4    104.324    108.498
ROOT
ATOM      1  C1  IDS C   1      18.800 108.471  71.6510  0.00  0.00     0.000 C
ATOM      2  C2  IDS C   1      18.297 109.831  72.1010  0.00  0.00     0.000 C
ATOM      3  C3  IDS C   1      18.825 110.170  73.4900  0.00  0.00     0.000 C
ATOM      4  C4  IDS C   1      20.342 109.993  73.5620  0.00  0.00     0.000 C
ATOM      5  C5  IDS C   1      20.746 108.618  72.9940  0.00  0.00     0.000 C
ATOM      6  O5  IDS C   1      20.226 108.450  71.6790  0.00  0.00     0.000 O
ATOM      7   O  IDS C   1      18.178 109.344  74.4600  0.00  0.00     0.000 O
ATOM      9  HD  IDS C   1      18.928 109.507  74.8630  0.00  0.00     0.000 HD
ATOM      9   O  IDS C   1      20.970 111.030  72.7930  0.00  0.00     0.000 O
ATOM     11  HD  IDS C   1      21.719 111.193  73.1950  0.00  0.00     0.000 HD
ENDROOT
BRANCH 2 11
ATOM     11   O  IDS C   1      18.768 110.883  71.1730  0.00  0.00     0.000 O
ATOM     12   S  IDS C   1      17.731 111.683  70.2560  0.00  0.00     0.000 S
ATOM     13   O  IDS C   1      18.325 113.000  70.2000  0.00  0.00     0.000 OA
ATOM     14   O  IDS C   1      16.432 111.676  70.8850  0.00  0.00     0.000 OA
ATOM     15   O  IDS C   1      17.753 110.989  68.9930  0.00  0.00     0.000 OA
ENDBRANCH 2 11
BRANCH 5 16
ATOM     16   C  IDS C   1      22.249 108.415  72.9260  0.00  0.00     0.000 C
ATOM     17   O  IDS C   1      22.678 107.341  72.5620  0.00  0.00     0.000 OA
ATOM     18   O  IDS C   1      23.003 109.294  73.2410  0.00  0.00     0.000 OA
ENDBRANCH 5 16
BRANCH 1 19
ATOM     19  O4  SGN C   2      18.190 107.371  72.1030  0.00  0.00     0.000 O
BRANCH 19 23
ATOM     20  C1  SGN C   2      17.128 103.432  71.2220  0.00  0.00     0.000 C
ATOM     21  C2  SGN C   2      18.614 103.696  71.4920  0.00  0.00     0.000 C
ATOM     22  C3  SGN C   2      18.778 105.034  72.2080  0.00  0.00     0.000 C
ATOM     23  C4  SGN C   2      18.143 106.143  71.3760  0.00  0.00     0.000 C
ATOM     24  C5  SGN C   2      16.687 105.787  71.0620  0.00  0.00     0.000 C
ATOM     25  O5  SGN C   2      16.625 104.496  70.4300  0.00  0.00     0.000 O
ATOM     26   O  SGN C   2      20.153 105.303  72.4520  0.00  0.00     0.000 O
ATOM     28  HD  SGN C   2      21.001 105.358  72.6230  0.00  0.00     0.000 HD
BRANCH 21 30
ATOM     28   N  SGN C   2      18.712 102.278  71.8600  0.00  0.00     0.000 N
ATOM     30  HD  SGN C   2      19.149 102.075  72.5800  0.00  0.00     0.000 HD
ATOM     30   S  SGN C   2      19.973 101.394  71.4270  0.00  0.00     0.000 S
ATOM     31   O  SGN C   2      21.113 102.112  71.8910  0.00  0.00     0.000 OA
ATOM     32   O  SGN C   2      19.755 100.061  71.8530  0.00  0.00     0.000 OA
ATOM     33   O  SGN C   2      19.916 101.390  69.8620  0.00  0.00     0.000 OA
ENDBRANCH 21 30
BRANCH 24 34
ATOM     34   C  SGN C   2      16.016 106.756  70.1170  0.00  0.00     0.000 C
ATOM     35   O  SGN C   2      15.188 107.653  70.8770  0.00  0.00     0.000 O
ATOM     36   S  SGN C   2      14.043 108.432  70.0820  0.00  0.00     0.000 S
ATOM     37   O  SGN C   2      13.290 107.394  69.4080  0.00  0.00     0.000 OA
ATOM     38   O  SGN C   2      13.280 109.134  71.0870  0.00  0.00     0.000 OA
ATOM     39   O  SGN C   2      14.769 109.303  69.1900  0.00  0.00     0.000 OA
ENDBRANCH 24 34
BRANCH 20 40
ATOM     40  O4  IDS C   3      16.333 103.256  72.2750  0.00  0.00     0.000 O
BRANCH 40 44
ATOM     41  C1  IDS C   3      14.343 102.430  75.0650  0.00  0.00     0.000 C
ATOM     42  C2  IDS C   3      15.643 101.689  74.7640  0.00  0.00     0.000 C
ATOM     43  C3  IDS C   3      15.649 101.191  73.3210  0.00  0.00     0.000 C
ATOM     44  C4  IDS C   3      15.277 102.295  72.3430  0.00  0.00     0.000 C
ATOM     45  C5  IDS C   3      13.974 102.985  72.8000  0.00  0.00     0.000 C
ATOM     46  O5  IDS C   3      14.141 103.485  74.1290  0.00  0.00     0.000 O
ATOM     47   O  IDS C   3      14.738 100.102  73.1930  0.00  0.00     0.000 O
ATOM     49  HD  IDS C   3      15.489 100.448  73.4500  0.00  0.00     0.000 HD
BRANCH 42 49
ATOM     49   O  IDS C   3      16.801 102.592  74.9590  0.00  0.00     0.000 O
ATOM     50   S  IDS C   3      18.098 102.062  75.7350  0.00  0.00     0.000 S
ATOM     51   O  IDS C   3      18.698 101.141  74.7950  0.00  0.00     0.000 OA
ATOM     52   O  IDS C   3      17.691 101.412  76.9700  0.00  0.00     0.000 OA
ATOM     53   O  IDS C   3      18.919 103.230  75.9810  0.00  0.00     0.000 OA
ENDBRANCH 42 49
BRANCH 45 54
ATOM     54   C  IDS C   3      13.551 104.132  71.8960  0.00  0.00     0.000 C
ATOM     55   O  IDS C   3      13.402 105.233  72.3600  0.00  0.00     0.000 OA
ATOM     56   O  IDS C   3      13.348 103.930  70.7150  0.00  0.00     0.000 OA
ENDBRANCH 45 54
BRANCH 41 57
ATOM     57  O4  SGN C   4      13.404 101.501  75.2790  0.00  0.00     0.000 O
BRANCH 57 61
ATOM     58  C1  SGN C   4       9.493 101.297  76.7600  0.00  0.00     0.000 C
ATOM     59  C2  SGN C   4       9.691 102.045  75.4320  0.00  0.00     0.000 C
ATOM     60  C3  SGN C   4      11.047 101.704  74.8000  0.00  0.00     0.000 C
ATOM     61  C4  SGN C   4      12.155 101.960  75.8080  0.00  0.00     0.000 C
ATOM     62  C5  SGN C   4      11.879 101.211  77.1110  0.00  0.00     0.000 C
ATOM     63  O5  SGN C   4      10.583 101.561  77.6320  0.00  0.00     0.000 O
BRANCH 59 66
ATOM     64   N  SGN C   4       8.481 101.742  74.6610  0.00  0.00     0.000 N
ATOM     66  HD  SGN C   4       9.285 101.967  74.8920  0.00  0.00     0.000 HD
ATOM     66   O  SGN C   4       6.519 102.342  73.3470  0.00  0.00     0.000 OA
ATOM     67   O  SGN C   4       7.141 103.688  75.3080  0.00  0.00     0.000 OA
ATOM     68   S  SGN C   4       7.624 102.937  74.0190  0.00  0.00     0.000 S
ATOM     69   O  SGN C   4       8.505 103.782  73.2960  0.00  0.00     0.000 OA
ENDBRANCH 59 66
BRANCH 62 70
ATOM     70   C  SGN C   4      12.893 101.554  78.1730  0.00  0.00     0.000 C
ATOM     71   S  SGN C   4      14.122 103.507  79.2890  0.00  0.00     0.000 S
ATOM     72   O  SGN C   4      13.851 102.918  80.5860  0.00  0.00     0.000 OA
ATOM     73   O  SGN C   4      15.363 103.049  78.6980  0.00  0.00     0.000 OA
ATOM     74   O  SGN C   4      13.959 104.943  79.2620  0.00  0.00     0.000 OA
ATOM     75   O  SGN C   4      12.957 102.974  78.3510  0.00  0.00     0.000 O
ENDBRANCH 62 70
ENDBRANCH 57 61
ENDBRANCH 41 57
ENDBRANCH 40 44
ENDBRANCH 20 40
ENDBRANCH 19 23
ENDBRANCH 1 19
TORSDOF 14
ENDMDL
MODEL 37
REMARK VINA RESULT:      -0.4     79.557     83.359
ROOT
ATOM      1  C1  IDS C   1      32.360  87.867  27.2270  0.00  0.00     0.000 C
ATOM      2  C2  IDS C   1      30.863  87.633  27.1370  0.00  0.00     0.000 C
ATOM      3  C3  IDS C   1      30.555  86.146  27.0040  0.00  0.00     0.000 C
ATOM      4  C4  IDS C   1      31.264  85.336  28.0890  0.00  0.00     0.000 C
ATOM      5  C5  IDS C   1      32.755  85.722  28.1540  0.00  0.00     0.000 C
ATOM      6  O5  IDS C   1      32.899  87.128  28.3230  0.00  0.00     0.000 O
ATOM      7   O  IDS C   1      30.945  85.694  25.7060  0.00  0.00     0.000 O
ATOM      9  HD  IDS C   1      31.015  84.959  26.1590  0.00  0.00     0.000 HD
ATOM      9   O  IDS C   1      30.645  85.611  29.3550  0.00  0.00     0.000 O
ATOM     11  HD  IDS C   1      30.715  84.876  29.8090  0.00  0.00     0.000 HD
ENDROOT
BRANCH 2 11
ATOM     11   O  IDS C   1      30.194  88.122  28.3630  0.00  0.00     0.000 O
ATOM     12   S  IDS C   1      29.229  89.395  28.3110  0.00  0.00     0.000 S
ATOM     13   O  IDS C   1      28.227  89.060  29.2990  0.00  0.00     0.000 OA
ATOM     14   O  IDS C   1      28.686  89.529  26.9810  0.00  0.00     0.000 OA
ATOM     15   O  IDS C   1      30.068  90.502  28.6960  0.00  0.00     0.000 OA
ENDBRANCH 2 11
BRANCH 5 16
ATOM     16   C  IDS C   1      33.502  85.041  29.2870  0.00  0.00     0.000 C
ATOM     17   O  IDS C   1      34.676  85.299  29.4510  0.00  0.00     0.000 OA
ATOM     18   O  IDS C   1      32.949  84.250  30.0000  0.00  0.00     0.000 OA
ENDBRANCH 5 16
BRANCH 1 19
ATOM     19  O4  SGN C   2      33.087  87.861  26.1060  0.00  0.00     0.000 O
BRANCH 19 23
ATOM     20  C1  SGN C   2      36.469  89.400  24.2030  0.00  0.00     0.000 C
ATOM     21  C2  SGN C   2      36.717  88.391  25.3310  0.00  0.00     0.000 C
ATOM     22  C3  SGN C   2      35.436  87.612  25.6170  0.00  0.00     0.000 C
ATOM     23  C4  SGN C   2      34.311  88.583  25.9580  0.00  0.00     0.000 C
ATOM     24  C5  SGN C   2      34.164  89.620  24.8410  0.00  0.00     0.000 C
ATOM     25  O5  SGN C   2      35.426  90.271  24.6100  0.00  0.00     0.000 O
ATOM     26   O  SGN C   2      35.644  86.681  26.6730  0.00  0.00     0.000 O
ATOM     28  HD  SGN C   2      35.872  86.097  27.2710  0.00  0.00     0.000 HD
BRANCH 21 30
ATOM     28   N  SGN C   2      37.999  88.079  24.6840  0.00  0.00     0.000 N
ATOM     30  HD  SGN C   2      38.232  87.247  24.6250  0.00  0.00     0.000 HD
ATOM     30   S  SGN C   2      39.336  87.889  25.5420  0.00  0.00     0.000 S
ATOM     31   O  SGN C   2      39.017  86.906  26.5220  0.00  0.00     0.000 OA
ATOM     32   O  SGN C   2      40.415  87.675  24.6510  0.00  0.00     0.000 OA
ATOM     33   O  SGN C   2      39.563  89.289  26.2080  0.00  0.00     0.000 OA
ENDBRANCH 21 30
BRANCH 24 34
ATOM     34   C  SGN C   2      33.171  90.714  25.1560  0.00  0.00     0.000 C
ATOM     35   O  SGN C   2      31.929  90.424  24.4900  0.00  0.00     0.000 O
ATOM     36   S  SGN C   2      30.914  91.640  24.2870  0.00  0.00     0.000 S
ATOM     37   O  SGN C   2      31.694  92.664  23.6200  0.00  0.00     0.000 OA
ATOM     38   O  SGN C   2      29.839  91.119  23.4780  0.00  0.00     0.000 OA
ATOM     39   O  SGN C   2      30.516  91.989  25.6290  0.00  0.00     0.000 OA
ENDBRANCH 24 34
BRANCH 20 40
ATOM     40  O4  IDS C   3      36.190  88.916  22.9950  0.00  0.00     0.000 O
BRANCH 40 44
ATOM     41  C1  IDS C   3      35.825  87.595  19.7470  0.00  0.00     0.000 C
ATOM     42  C2  IDS C   3      37.018  87.232  20.6270  0.00  0.00     0.000 C
ATOM     43  C3  IDS C   3      37.693  88.496  21.1540  0.00  0.00     0.000 C
ATOM     44  C4  IDS C   3      36.688  89.457  21.7690  0.00  0.00     0.000 C
ATOM     45  C5  IDS C   3      35.518  89.691  20.7910  0.00  0.00     0.000 C
ATOM     46  O5  IDS C   3      34.919  88.437  20.4550  0.00  0.00     0.000 O
ATOM     47   O  IDS C   3      38.391  89.139  20.0900  0.00  0.00     0.000 O
ATOM     49  HD  IDS C   3      38.302  88.513  20.6820  0.00  0.00     0.000 HD
BRANCH 42 49
ATOM     49   O  IDS C   3      36.571  86.418  21.7810  0.00  0.00     0.000 O
ATOM     50   S  IDS C   3      37.398  85.110  22.1960  0.00  0.00     0.000 S
ATOM     51   O  IDS C   3      38.610  85.650  22.7700  0.00  0.00     0.000 OA
ATOM     52   O  IDS C   3      37.651  84.302  21.0140  0.00  0.00     0.000 OA
ATOM     53   O  IDS C   3      36.578  84.412  23.1650  0.00  0.00     0.000 OA
ENDBRANCH 42 49
BRANCH 45 54
ATOM     54   C  IDS C   3      34.443  90.613  21.3460  0.00  0.00     0.000 C
ATOM     55   O  IDS C   3      33.308  90.222  21.4310  0.00  0.00     0.000 OA
ATOM     56   O  IDS C   3      34.730  91.744  21.6840  0.00  0.00     0.000 OA
ENDBRANCH 45 54
BRANCH 41 57
ATOM     57  O4  SGN C   4      36.313  87.950  18.5520  0.00  0.00     0.000 O
BRANCH 57 61
ATOM     58  C1  SGN C   4      34.878  88.740  14.7000  0.00  0.00     0.000 C
ATOM     59  C2  SGN C   4      34.418  89.690  15.8170  0.00  0.00     0.000 C
ATOM     60  C3  SGN C   4      35.309  89.558  17.0590  0.00  0.00     0.000 C
ATOM     61  C4  SGN C   4      35.366  88.102  17.4910  0.00  0.00     0.000 C
ATOM     62  C5  SGN C   4      35.800  87.214  16.3260  0.00  0.00     0.000 C
ATOM     63  O5  SGN C   4      34.936  87.409  15.1900  0.00  0.00     0.000 O
BRANCH 59 66
ATOM     64   N  SGN C   4      34.335  90.999  15.1600  0.00  0.00     0.000 N
ATOM     66  HD  SGN C   4      34.406  90.367  15.7480  0.00  0.00     0.000 HD
ATOM     66   O  SGN C   4      33.213  93.075  14.5570  0.00  0.00     0.000 OA
ATOM     67   O  SGN C   4      31.957  90.961  14.5730  0.00  0.00     0.000 OA
ATOM     68   S  SGN C   4      33.001  91.879  15.2990  0.00  0.00     0.000 S
ATOM     69   O  SGN C   4      32.662  91.963  16.6740  0.00  0.00     0.000 OA
ENDBRANCH 59 66
BRANCH 62 70
ATOM     70   C  SGN C   4      35.735  85.752  16.6890  0.00  0.00     0.000 C
ATOM     71   S  SGN C   4      34.258  83.969  17.7890  0.00  0.00     0.000 S
ATOM     72   O  SGN C   4      34.554  83.068  16.6930  0.00  0.00     0.000 OA
ATOM     73   O  SGN C   4      35.205  83.875  18.8820  0.00  0.00     0.000 OA
ATOM     74   O  SGN C   4      32.876  83.932  18.2110  0.00  0.00     0.000 OA
ATOM     75   O  SGN C   4      34.428  85.424  17.1750  0.00  0.00     0.000 O
ENDBRANCH 62 70
ENDBRANCH 57 61
ENDBRANCH 41 57
ENDBRANCH 40 44
ENDBRANCH 20 40
ENDBRANCH 19 23
ENDBRANCH 1 19
TORSDOF 14
ENDMDL
MODEL 38
REMARK VINA RESULT:      -0.4    147.913    153.180
ROOT
ATOM      1  C1  IDS C   1     109.154  88.782 107.9110  0.00  0.00     0.000 C
ATOM      2  C2  IDS C   1     109.571  90.033 108.6640  0.00  0.00     0.000 C
ATOM      3  C3  IDS C   1     109.964  91.141 107.6950  0.00  0.00     0.000 C
ATOM      4  C4  IDS C   1     108.881  91.362 106.6400  0.00  0.00     0.000 C
ATOM      5  C5  IDS C   1     108.469  90.017 106.0080  0.00  0.00     0.000 C
ATOM      6  O5  IDS C   1     108.085  89.089 107.0180  0.00  0.00     0.000 O
ATOM      7   O  IDS C   1     111.208  90.812 107.0740  0.00  0.00     0.000 O
ATOM      9  HD  IDS C   1     110.854  91.317 106.4660  0.00  0.00     0.000 HD
ATOM      9   O  IDS C   1     107.737  91.965 107.2640  0.00  0.00     0.000 O
ATOM     11  HD  IDS C   1     107.383  92.470 106.6560  0.00  0.00     0.000 HD
ENDROOT
BRANCH 2 11
ATOM     11   O  IDS C   1     108.446  90.532 109.4860  0.00  0.00     0.000 O
ATOM     12   S  IDS C   1     108.517  90.476 111.0820  0.00  0.00     0.000 S
ATOM     13   O  IDS C   1     107.800  91.672 111.4630  0.00  0.00     0.000 OA
ATOM     14   O  IDS C   1     109.898  90.489 111.5000  0.00  0.00     0.000 OA
ATOM     15   O  IDS C   1     107.829  89.258 111.4320  0.00  0.00     0.000 OA
ENDBRANCH 2 11
BRANCH 5 16
ATOM     16   C  IDS C   1     107.314  90.141 105.0310  0.00  0.00     0.000 C
ATOM     17   O  IDS C   1     106.893  89.139 104.4930  0.00  0.00     0.000 OA
ATOM     18   O  IDS C   1     106.833  91.212 104.7800  0.00  0.00     0.000 OA
ENDBRANCH 5 16
BRANCH 1 19
ATOM     19  O4  SGN C   2     110.099  87.968 107.4310  0.00  0.00     0.000 O
BRANCH 19 23
ATOM     20  C1  SGN C   2     111.071  84.016 106.5010  0.00  0.00     0.000 C
ATOM     21  C2  SGN C   2     110.075  84.714 105.5680  0.00  0.00     0.000 C
ATOM     22  C3  SGN C   2     110.157  86.226 105.7640  0.00  0.00     0.000 C
ATOM     23  C4  SGN C   2     109.903  86.568 107.2270  0.00  0.00     0.000 C
ATOM     24  C5  SGN C   2     110.865  85.779 108.1200  0.00  0.00     0.000 C
ATOM     25  O5  SGN C   2     110.751  84.372 107.8360  0.00  0.00     0.000 O
ATOM     26   O  SGN C   2     109.227  86.890 104.9150  0.00  0.00     0.000 O
ATOM     28  HD  SGN C   2     108.687  87.217 104.3220  0.00  0.00     0.000 HD
BRANCH 21 30
ATOM     28   N  SGN C   2     110.499  83.768 104.5270  0.00  0.00     0.000 N
ATOM     30  HD  SGN C   2     110.645  84.079 103.7320  0.00  0.00     0.000 HD
ATOM     30   S  SGN C   2     109.438  83.091 103.5400  0.00  0.00     0.000 S
ATOM     31   O  SGN C   2     108.712  84.174 102.9670  0.00  0.00     0.000 OA
ATOM     32   O  SGN C   2     110.123  82.177 102.7030  0.00  0.00     0.000 OA
ATOM     33   O  SGN C   2     108.522  82.245 104.4890  0.00  0.00     0.000 OA
ENDBRANCH 21 30
BRANCH 24 34
ATOM     34   C  SGN C   2     110.592  85.939 109.5970  0.00  0.00     0.000 C
ATOM     35   O  SGN C   2     111.568  86.834 110.1580  0.00  0.00     0.000 O
ATOM     36   S  SGN C   2     111.773  86.784 111.7410  0.00  0.00     0.000 S
ATOM     37   O  SGN C   2     112.042  85.391 112.0340  0.00  0.00     0.000 OA
ATOM     38   O  SGN C   2     112.890  87.655 112.0160  0.00  0.00     0.000 OA
ATOM     39   O  SGN C   2     110.519  87.262 112.2690  0.00  0.00     0.000 OA
ENDBRANCH 24 34
BRANCH 20 40
ATOM     40  O4  IDS C   3     112.367  84.231 106.2890  0.00  0.00     0.000 O
BRANCH 40 44
ATOM     41  C1  IDS C   3     115.780  84.526 105.4590  0.00  0.00     0.000 C
ATOM     42  C2  IDS C   3     114.749  84.056 104.4380  0.00  0.00     0.000 C
ATOM     43  C3  IDS C   3     113.924  82.904 105.0070  0.00  0.00     0.000 C
ATOM     44  C4  IDS C   3     113.383  83.230 106.3900  0.00  0.00     0.000 C
ATOM     45  C5  IDS C   3     114.525  83.737 107.2960  0.00  0.00     0.000 C
ATOM     46  O5  IDS C   3     115.147  84.871 106.6880  0.00  0.00     0.000 O
ATOM     47   O  IDS C   3     114.729  81.729 105.0650  0.00  0.00     0.000 O
ATOM     49  HD  IDS C   3     114.262  82.320 104.6360  0.00  0.00     0.000 HD
BRANCH 42 49
ATOM     49   O  IDS C   3     113.833  85.168 104.0900  0.00  0.00     0.000 O
ATOM     50   S  IDS C   3     113.455  85.434 102.5560  0.00  0.00     0.000 S
ATOM     51   O  IDS C   3     112.584  84.326 102.2310  0.00  0.00     0.000 OA
ATOM     52   O  IDS C   3     114.667  85.445 101.7540  0.00  0.00     0.000 OA
ATOM     53   O  IDS C   3     112.775  86.711 102.5300  0.00  0.00     0.000 OA
ENDBRANCH 42 49
BRANCH 45 54
ATOM     54   C  IDS C   3     114.060  84.123 108.6910  0.00  0.00     0.000 C
ATOM     55   O  IDS C   3     114.300  85.224 109.1160  0.00  0.00     0.000 OA
ATOM     56   O  IDS C   3     113.465  83.316 109.3780  0.00  0.00     0.000 OA
ENDBRANCH 45 54
BRANCH 41 57
ATOM     57  O4  SGN C   4     116.795  83.653 105.4220  0.00  0.00     0.000 O
BRANCH 57 61
ATOM     58  C1  SGN C   4     120.706  83.346 106.8810  0.00  0.00     0.000 C
ATOM     59  C2  SGN C   4     119.575  83.299 107.9210  0.00  0.00     0.000 C
ATOM     60  C3  SGN C   4     118.223  83.007 107.2560  0.00  0.00     0.000 C
ATOM     61  C4  SGN C   4     117.978  84.012 106.1420  0.00  0.00     0.000 C
ATOM     62  C5  SGN C   4     119.152  84.026 105.1650  0.00  0.00     0.000 C
ATOM     63  O5  SGN C   4     120.388  84.280 105.8600  0.00  0.00     0.000 O
BRANCH 59 66
ATOM     64   N  SGN C   4     120.061  82.360 108.9370  0.00  0.00     0.000 N
ATOM     66  HD  SGN C   4     119.557  82.851 108.4320  0.00  0.00     0.000 HD
ATOM     66   O  SGN C   4     120.583  81.687 111.2190  0.00  0.00     0.000 OA
ATOM     67   O  SGN C   4     121.069  83.979 110.4750  0.00  0.00     0.000 OA
ATOM     68   S  SGN C   4     120.053  82.785 110.4850  0.00  0.00     0.000 S
ATOM     69   O  SGN C   4     118.763  83.279 110.8060  0.00  0.00     0.000 OA
ENDBRANCH 59 66
BRANCH 62 70
ATOM     70   C  SGN C   4     118.996  85.107 104.1260  0.00  0.00     0.000 C
ATOM     71   S  SGN C   4     118.388  87.577 103.8030  0.00  0.00     0.000 S
ATOM     72   O  SGN C   4     119.529  87.727 102.9210  0.00  0.00     0.000 OA
ATOM     73   O  SGN C   4     117.178  87.177 103.1130  0.00  0.00     0.000 OA
ATOM     74   O  SGN C   4     118.204  88.691 104.7040  0.00  0.00     0.000 OA
ATOM     75   O  SGN C   4     118.775  86.372 104.7620  0.00  0.00     0.000 O
ENDBRANCH 62 70
ENDBRANCH 57 61
ENDBRANCH 41 57
ENDBRANCH 40 44
ENDBRANCH 20 40
ENDBRANCH 19 23
ENDBRANCH 1 19
TORSDOF 14
ENDMDL
MODEL 39
REMARK VINA RESULT:      -0.4     68.149     73.831
ROOT
ATOM      1  C1  IDS C   1      78.639  46.090  28.6460  0.00  0.00     0.000 C
ATOM      2  C2  IDS C   1      78.553  46.967  27.4100  0.00  0.00     0.000 C
ATOM      3  C3  IDS C   1      77.889  48.299  27.7370  0.00  0.00     0.000 C
ATOM      4  C4  IDS C   1      78.549  48.962  28.9470  0.00  0.00     0.000 C
ATOM      5  C5  IDS C   1      78.669  47.954  30.1080  0.00  0.00     0.000 C
ATOM      6  O5  IDS C   1      79.345  46.777  29.6780  0.00  0.00     0.000 O
ATOM      7   O  IDS C   1      76.497  48.091  27.9790  0.00  0.00     0.000 O
ATOM      9  HD  IDS C   1      76.636  48.802  28.4520  0.00  0.00     0.000 HD
ATOM      9   O  IDS C   1      79.859  49.416  28.5730  0.00  0.00     0.000 O
ATOM     11  HD  IDS C   1      79.999  50.128  29.0470  0.00  0.00     0.000 HD
ENDROOT
BRANCH 2 11
ATOM     11   O  IDS C   1      79.909  47.256  26.8930  0.00  0.00     0.000 O
ATOM     12   S  IDS C   1      80.380  46.680  25.4780  0.00  0.00     0.000 S
ATOM     13   O  IDS C   1      81.234  47.739  24.9850  0.00  0.00     0.000 OA
ATOM     14   O  IDS C   1      79.224  46.454  24.6440  0.00  0.00     0.000 OA
ATOM     15   O  IDS C   1      81.094  45.470  25.7980  0.00  0.00     0.000 OA
ENDBRANCH 2 11
BRANCH 5 16
ATOM     16   C  IDS C   1      79.419  48.506  31.3060  0.00  0.00     0.000 C
ATOM     17   O  IDS C   1      79.578  47.795  32.2750  0.00  0.00     0.000 OA
ATOM     18   O  IDS C   1      79.835  49.632  31.3060  0.00  0.00     0.000 OA
ENDBRANCH 5 16
BRANCH 1 19
ATOM     19  O4  SGN C   2      77.558  45.406  29.0330  0.00  0.00     0.000 O
BRANCH 19 23
ATOM     20  C1  SGN C   2      76.181  41.918  30.8670  0.00  0.00     0.000 C
ATOM     21  C2  SGN C   2      76.851  42.953  31.7790  0.00  0.00     0.000 C
ATOM     22  C3  SGN C   2      76.897  44.307  31.0760  0.00  0.00     0.000 C
ATOM     23  C4  SGN C   2      77.622  44.168  29.7420  0.00  0.00     0.000 C
ATOM     24  C5  SGN C   2      76.968  43.063  28.9080  0.00  0.00     0.000 C
ATOM     25  O5  SGN C   2      76.927  41.839  29.6630  0.00  0.00     0.000 O
ATOM     26   O  SGN C   2      77.531  45.276  31.9030  0.00  0.00     0.000 O
ATOM     28  HD  SGN C   2      77.863  45.817  32.4920  0.00  0.00     0.000 HD
BRANCH 21 30
ATOM     28   N  SGN C   2      76.078  42.369  32.8830  0.00  0.00     0.000 N
ATOM     30  HD  SGN C   2      75.693  42.910  33.4390  0.00  0.00     0.000 HD
ATOM     30   S  SGN C   2      76.736  42.133  34.3220  0.00  0.00     0.000 S
ATOM     31   O  SGN C   2      77.276  43.395  34.7010  0.00  0.00     0.000 OA
ATOM     32   O  SGN C   2      75.784  41.493  35.1520  0.00  0.00     0.000 OA
ATOM     33   O  SGN C   2      77.878  41.095  34.0520  0.00  0.00     0.000 OA
ENDBRANCH 21 30
BRANCH 24 34
ATOM     34   C  SGN C   2      77.708  42.750  27.6280  0.00  0.00     0.000 C
ATOM     35   O  SGN C   2      77.025  43.377  26.5280  0.00  0.00     0.000 O
ATOM     36   S  SGN C   2      77.332  42.812  25.0670  0.00  0.00     0.000 S
ATOM     37   O  SGN C   2      77.076  41.388  25.1610  0.00  0.00     0.000 OA
ATOM     38   O  SGN C   2      76.423  43.501  24.1840  0.00  0.00     0.000 OA
ATOM     39   O  SGN C   2      78.719  43.144  24.8500  0.00  0.00     0.000 OA
ENDBRANCH 24 34
BRANCH 20 40
ATOM     40  O4  IDS C   3      74.895  42.097  30.5740  0.00  0.00     0.000 O
BRANCH 40 44
ATOM     41  C1  IDS C   3      71.412  42.400  30.1230  0.00  0.00     0.000 C
ATOM     42  C2  IDS C   3      72.036  42.359  31.5150  0.00  0.00     0.000 C
ATOM     43  C3  IDS C   3      72.954  41.147  31.6490  0.00  0.00     0.000 C
ATOM     44  C4  IDS C   3      73.929  41.047  30.4870  0.00  0.00     0.000 C
ATOM     45  C5  IDS C   3      73.165  41.153  29.1500  0.00  0.00     0.000 C
ATOM     46  O5  IDS C   3      72.425  42.375  29.1200  0.00  0.00     0.000 O
ATOM     47   O  IDS C   3      72.166  39.962  31.7250  0.00  0.00     0.000 O
ATOM     49  HD  IDS C   3      72.491  40.690  32.0630  0.00  0.00     0.000 HD
BRANCH 42 49
ATOM     49   O  IDS C   3      72.832  43.585  31.7530  0.00  0.00     0.000 O
ATOM     50   S  IDS C   3      72.699  44.359  33.1490  0.00  0.00     0.000 S
ATOM     51   O  IDS C   3      73.369  43.481  34.0830  0.00  0.00     0.000 OA
ATOM     52   O  IDS C   3      71.292  44.542  33.4680  0.00  0.00     0.000 OA
ATOM     53   O  IDS C   3      73.384  45.622  32.9720  0.00  0.00     0.000 OA
ENDBRANCH 42 49
BRANCH 45 54
ATOM     54   C  IDS C   3      74.073  41.102  27.9310  0.00  0.00     0.000 C
ATOM     55   O  IDS C   3      74.061  42.009  27.1400  0.00  0.00     0.000 OA
ATOM     56   O  IDS C   3      74.794  40.139  27.7520  0.00  0.00     0.000 OA
ENDBRANCH 45 54
BRANCH 41 57
ATOM     57  O4  SGN C   4      70.407  41.516  30.1170  0.00  0.00     0.000 O
BRANCH 57 61
ATOM     58  C1  SGN C   4      67.184  40.465  27.6610  0.00  0.00     0.000 C
ATOM     59  C2  SGN C   4      68.590  40.307  27.0610  0.00  0.00     0.000 C
ATOM     60  C3  SGN C   4      69.665  40.321  28.1570  0.00  0.00     0.000 C
ATOM     61  C4  SGN C   4      69.509  41.572  29.0050  0.00  0.00     0.000 C
ATOM     62  C5  SGN C   4      68.082  41.680  29.5430  0.00  0.00     0.000 C
ATOM     63  O5  SGN C   4      67.129  41.635  28.4640  0.00  0.00     0.000 O
BRANCH 59 66
ATOM     64   N  SGN C   4      68.482  39.116  26.2120  0.00  0.00     0.000 N
ATOM     66  HD  SGN C   4      68.784  39.758  26.7090  0.00  0.00     0.000 HD
ATOM     66   O  SGN C   4      68.746  37.890  24.1230  0.00  0.00     0.000 OA
ATOM     67   O  SGN C   4      67.993  40.230  24.0860  0.00  0.00     0.000 OA
ATOM     68   S  SGN C   4      68.983  39.175  24.6890  0.00  0.00     0.000 S
ATOM     69   O  SGN C   4      70.296  39.711  24.6700  0.00  0.00     0.000 OA
ENDBRANCH 59 66
BRANCH 62 70
ATOM     70   C  SGN C   4      67.863  42.979  30.2760  0.00  0.00     0.000 C
ATOM     71   S  SGN C   4      68.108  45.523  30.0720  0.00  0.00     0.000 S
ATOM     72   O  SGN C   4      66.777  45.681  30.6230  0.00  0.00     0.000 OA
ATOM     73   O  SGN C   4      69.147  45.492  31.0820  0.00  0.00     0.000 OA
ATOM     74   O  SGN C   4      68.389  46.419  28.9750  0.00  0.00     0.000 OA
ATOM     75   O  SGN C   4      68.099  44.086  29.3970  0.00  0.00     0.000 O
ENDBRANCH 62 70
ENDBRANCH 57 61
ENDBRANCH 41 57
ENDBRANCH 40 44
ENDBRANCH 20 40
ENDBRANCH 19 23
ENDBRANCH 1 19
TORSDOF 14
ENDMDL
MODEL 40
REMARK VINA RESULT:      -0.4     97.739    104.241
ROOT
ATOM      1  C1  IDS C   1      83.388  66.094  59.2580  0.00  0.00     0.000 C
ATOM      2  C2  IDS C   1      82.482  67.122  59.9120  0.00  0.00     0.000 C
ATOM      3  C3  IDS C   1      82.054  68.183  58.9060  0.00  0.00     0.000 C
ATOM      4  C4  IDS C   1      81.485  67.544  57.6390  0.00  0.00     0.000 C
ATOM      5  C5  IDS C   1      82.441  66.453  57.1160  0.00  0.00     0.000 C
ATOM      6  O5  IDS C   1      82.723  65.506  58.1410  0.00  0.00     0.000 O
ATOM      7   O  IDS C   1      83.170  69.016  58.5880  0.00  0.00     0.000 O
ATOM      9  HD  IDS C   1      82.702  69.092  57.8630  0.00  0.00     0.000 HD
ATOM      9   O  IDS C   1      80.211  66.955  57.9440  0.00  0.00     0.000 O
ATOM     11  HD  IDS C   1      79.744  67.031  57.2190  0.00  0.00     0.000 HD
ENDROOT
BRANCH 2 11
ATOM     11   O  IDS C   1      81.257  66.470  60.4270  0.00  0.00     0.000 O
ATOM     12   S  IDS C   1      80.987  66.372  61.9990  0.00  0.00     0.000 S
ATOM     13   O  IDS C   1      79.548  66.497  62.0710  0.00  0.00     0.000 OA
ATOM     14   O  IDS C   1      81.681  67.444  62.6710  0.00  0.00     0.000 OA
ATOM     15   O  IDS C   1      81.468  65.064  62.3690  0.00  0.00     0.000 OA
ENDBRANCH 2 11
BRANCH 5 16
ATOM     16   C  IDS C   1      81.889  65.693  55.9240  0.00  0.00     0.000 C
ATOM     17   O  IDS C   1      82.522  64.757  55.4830  0.00  0.00     0.000 OA
ATOM     18   O  IDS C   1      80.854  66.019  55.4120  0.00  0.00     0.000 OA
ENDBRANCH 5 16
BRANCH 1 19
ATOM     19  O4  SGN C   2      84.680  66.386  59.0820  0.00  0.00     0.000 O
BRANCH 19 23
ATOM     20  C1  SGN C   2      88.551  64.837  58.8880  0.00  0.00     0.000 C
ATOM     21  C2  SGN C   2      87.621  64.502  57.7160  0.00  0.00     0.000 C
ATOM     22  C3  SGN C   2      86.436  65.464  57.7080  0.00  0.00     0.000 C
ATOM     23  C4  SGN C   2      85.712  65.399  59.0480  0.00  0.00     0.000 C
ATOM     24  C5  SGN C   2      86.704  65.654  60.1870  0.00  0.00     0.000 C
ATOM     25  O5  SGN C   2      87.806  64.733  60.0890  0.00  0.00     0.000 O
ATOM     26   O  SGN C   2      85.552  65.158  56.6350  0.00  0.00     0.000 O
ATOM     28  HD  SGN C   2      85.107  64.950  55.9220  0.00  0.00     0.000 HD
BRANCH 21 30
ATOM     28   N  SGN C   2      88.816  64.341  56.8780  0.00  0.00     0.000 N
ATOM     30  HD  SGN C   2      88.794  64.663  56.0740  0.00  0.00     0.000 HD
ATOM     30   S  SGN C   2      88.957  63.114  55.8610  0.00  0.00     0.000 S
ATOM     31   O  SGN C   2      87.782  63.155  55.0560  0.00  0.00     0.000 OA
ATOM     32   O  SGN C   2      90.233  63.179  55.2520  0.00  0.00     0.000 OA
ATOM     33   O  SGN C   2      88.954  61.851  56.7870  0.00  0.00     0.000 OA
ENDBRANCH 21 30
BRANCH 24 34
ATOM     34   C  SGN C   2      86.110  65.463  61.5630  0.00  0.00     0.000 C
ATOM     35   O  SGN C   2      85.856  66.754  62.1450  0.00  0.00     0.000 O
ATOM     36   S  SGN C   2      85.683  66.813  63.7310  0.00  0.00     0.000 S
ATOM     37   O  SGN C   2      86.874  66.175  64.2560  0.00  0.00     0.000 OA
ATOM     38   O  SGN C   2      85.590  68.215  64.0600  0.00  0.00     0.000 OA
ATOM     39   O  SGN C   2      84.467  66.076  63.9760  0.00  0.00     0.000 OA
ENDBRANCH 24 34
BRANCH 20 40
ATOM     40  O4  IDS C   3      89.177  66.011  58.8600  0.00  0.00     0.000 O
BRANCH 40 44
ATOM     41  C1  IDS C   3      91.104  68.945  58.5320  0.00  0.00     0.000 C
ATOM     42  C2  IDS C   3      91.089  67.874  57.4450  0.00  0.00     0.000 C
ATOM     43  C3  IDS C   3      91.395  66.504  58.0450  0.00  0.00     0.000 C
ATOM     44  C4  IDS C   3      90.533  66.218  59.2650  0.00  0.00     0.000 C
ATOM     45  C5  IDS C   3      90.607  67.403  60.2500  0.00  0.00     0.000 C
ATOM     46  O5  IDS C   3      90.205  68.602  59.5840  0.00  0.00     0.000 O
ATOM     47   O  IDS C   3      92.774  66.440  58.4000  0.00  0.00     0.000 O
ATOM     49  HD  IDS C   3      92.130  66.436  57.8220  0.00  0.00     0.000 HD
BRANCH 42 49
ATOM     49   O  IDS C   3      89.757  67.822  56.7990  0.00  0.00     0.000 O
ATOM     50   S  IDS C   3      89.651  67.775  55.2010  0.00  0.00     0.000 S
ATOM     51   O  IDS C   3      90.102  66.439  54.8770  0.00  0.00     0.000 OA
ATOM     52   O  IDS C   3      90.503  68.805  54.6300  0.00  0.00     0.000 OA
ATOM     53   O  IDS C   3      88.254  67.989  54.8890  0.00  0.00     0.000 OA
ENDBRANCH 42 49
BRANCH 45 54
ATOM     54   C  IDS C   3      89.738  67.216  61.4840  0.00  0.00     0.000 C
ATOM     55   O  IDS C   3      88.885  68.024  61.7410  0.00  0.00     0.000 OA
ATOM     56   O  IDS C   3      89.920  66.261  62.2140  0.00  0.00     0.000 OA
ENDBRANCH 45 54
BRANCH 41 57
ATOM     57  O4  SGN C   4      92.387  69.232  58.7810  0.00  0.00     0.000 O
BRANCH 57 61
ATOM     58  C1  SGN C   4      94.595  72.095  60.8930  0.00  0.00     0.000 C
ATOM     59  C2  SGN C   4      93.711  71.152  61.7250  0.00  0.00     0.000 C
ATOM     60  C3  SGN C   4      93.292  69.921  60.9100  0.00  0.00     0.000 C
ATOM     61  C4  SGN C   4      92.641  70.370  59.6120  0.00  0.00     0.000 C
ATOM     62  C5  SGN C   4      93.561  71.325  58.8530  0.00  0.00     0.000 C
ATOM     63  O5  SGN C   4      93.932  72.440  59.6850  0.00  0.00     0.000 O
BRANCH 59 66
ATOM     64   N  SGN C   4      94.474  70.923  62.9570  0.00  0.00     0.000 N
ATOM     66  HD  SGN C   4      93.914  70.850  62.3000  0.00  0.00     0.000 HD
ATOM     66   O  SGN C   4      94.759  70.885  65.3750  0.00  0.00     0.000 OA
ATOM     67   O  SGN C   4      93.522  72.725  64.3150  0.00  0.00     0.000 OA
ATOM     68   S  SGN C   4      93.784  71.181  64.3820  0.00  0.00     0.000 S
ATOM     69   O  SGN C   4      92.538  70.502  64.4060  0.00  0.00     0.000 OA
ENDBRANCH 59 66
BRANCH 62 70
ATOM     70   C  SGN C   4      92.885  71.890  57.6290  0.00  0.00     0.000 C
ATOM     71   S  SGN C   4      90.740  73.024  56.8020  0.00  0.00     0.000 S
ATOM     72   O  SGN C   4      91.546  73.973  56.0590  0.00  0.00     0.000 OA
ATOM     73   O  SGN C   4      90.416  71.831  56.0450  0.00  0.00     0.000 OA
ATOM     74   O  SGN C   4      89.603  73.623  57.4620  0.00  0.00     0.000 OA
ATOM     75   O  SGN C   4      91.671  72.553  57.9990  0.00  0.00     0.000 O
ENDBRANCH 62 70
ENDBRANCH 57 61
ENDBRANCH 41 57
ENDBRANCH 40 44
ENDBRANCH 20 40
ENDBRANCH 19 23
ENDBRANCH 1 19
TORSDOF 14
ENDMDL
MODEL 41
REMARK VINA RESULT:      -0.4     98.853    103.853
ROOT
ATOM      1  C1  IDS C   1      21.506 113.451  25.0480  0.00  0.00     0.000 C
ATOM      2  C2  IDS C   1      21.506 113.818  26.5210  0.00  0.00     0.000 C
ATOM      3  C3  IDS C   1      22.245 115.130  26.7510  0.00  0.00     0.000 C
ATOM      4  C4  IDS C   1      21.728 116.226  25.8190  0.00  0.00     0.000 C
ATOM      5  C5  IDS C   1      21.682 115.713  24.3660  0.00  0.00     0.000 C
ATOM      6  O5  IDS C   1      20.927 114.509  24.2860  0.00  0.00     0.000 O
ATOM      7   O  IDS C   1      23.646 114.928  26.5560  0.00  0.00     0.000 O
ATOM      9  HD  IDS C   1      23.578 115.770  26.3640  0.00  0.00     0.000 HD
ATOM      9   O  IDS C   1      20.406 116.604  26.2320  0.00  0.00     0.000 O
ATOM     11  HD  IDS C   1      20.337 117.446  26.0400  0.00  0.00     0.000 HD
ENDROOT
BRANCH 2 11
ATOM     11   O  IDS C   1      20.118 113.994  27.0040  0.00  0.00     0.000 O
ATOM     12   S  IDS C   1      19.480 112.960  28.0420  0.00  0.00     0.000 S
ATOM     13   O  IDS C   1      18.628 113.813  28.8410  0.00  0.00     0.000 OA
ATOM     14   O  IDS C   1      20.535 112.340  28.8080  0.00  0.00     0.000 OA
ATOM     15   O  IDS C   1      18.750 112.025  27.2220  0.00  0.00     0.000 OA
ENDBRANCH 2 11
BRANCH 5 16
ATOM     16   C  IDS C   1      21.070 116.708  23.3970  0.00  0.00     0.000 C
ATOM     17   O  IDS C   1      20.968 116.400  22.2290  0.00  0.00     0.000 OA
ATOM     18   O  IDS C   1      20.707 117.789  23.7730  0.00  0.00     0.000 OA
ENDBRANCH 5 16
BRANCH 1 19
ATOM     19  O4  SGN C   2      22.593 112.880  24.5210  0.00  0.00     0.000 O
BRANCH 19 23
ATOM     20  C1  SGN C   2      24.010 110.230  21.6230  0.00  0.00     0.000 C
ATOM     21  C2  SGN C   2      23.523 111.596  21.1230  0.00  0.00     0.000 C
ATOM     22  C3  SGN C   2      23.458 112.578  22.2900  0.00  0.00     0.000 C
ATOM     23  C4  SGN C   2      22.556 112.017  23.3830  0.00  0.00     0.000 C
ATOM     24  C5  SGN C   2      23.034 110.618  23.7840  0.00  0.00     0.000 C
ATOM     25  O5  SGN C   2      23.108 109.776  22.6190  0.00  0.00     0.000 O
ATOM     26   O  SGN C   2      22.992 113.848  21.8460  0.00  0.00     0.000 O
ATOM     28  HD  SGN C   2      22.770 114.603  21.4840  0.00  0.00     0.000 HD
BRANCH 21 30
ATOM     28   N  SGN C   2      24.455 111.627  19.9890  0.00  0.00     0.000 N
ATOM     30  HD  SGN C   2      24.721 112.400  19.7030  0.00  0.00     0.000 HD
ATOM     30   S  SGN C   2      23.929 111.796  18.4870  0.00  0.00     0.000 S
ATOM     31   O  SGN C   2      23.118 112.967  18.5020  0.00  0.00     0.000 OA
ATOM     32   O  SGN C   2      25.038 111.715  17.6110  0.00  0.00     0.000 OA
ATOM     33   O  SGN C   2      23.057 110.517  18.2440  0.00  0.00     0.000 OA
ENDBRANCH 21 30
BRANCH 24 34
ATOM     34   C  SGN C   2      22.116 109.919  24.7580  0.00  0.00     0.000 C
ATOM     35   O  SGN C   2      22.708 109.959  26.0690  0.00  0.00     0.000 O
ATOM     36   S  SGN C   2      22.172 108.902  27.1390  0.00  0.00     0.000 S
ATOM     37   O  SGN C   2      22.313 107.614  26.4870  0.00  0.00     0.000 OA
ATOM     38   O  SGN C   2      23.020 109.056  28.2960  0.00  0.00     0.000 OA
ATOM     39   O  SGN C   2      20.804 109.297  27.3630  0.00  0.00     0.000 OA
ENDBRANCH 24 34
BRANCH 20 40
ATOM     40  O4  IDS C   3      25.253 110.154  22.0910  0.00  0.00     0.000 O
BRANCH 40 44
ATOM     41  C1  IDS C   3      28.672 109.936  22.9210  0.00  0.00     0.000 C
ATOM     42  C2  IDS C   3      28.212 110.480  21.5720  0.00  0.00     0.000 C
ATOM     43  C3  IDS C   3      27.251 109.499  20.9040  0.00  0.00     0.000 C
ATOM     44  C4  IDS C   3      26.145 109.062  21.8520  0.00  0.00     0.000 C
ATOM     45  C5  IDS C   3      26.754 108.585  23.1870  0.00  0.00     0.000 C
ATOM     46  O5  IDS C   3      27.551 109.631  23.7470  0.00  0.00     0.000 O
ATOM     47   O  IDS C   3      27.978 108.361  20.4480  0.00  0.00     0.000 O
ATOM     49  HD  IDS C   3      27.734 109.190  20.3890  0.00  0.00     0.000 HD
BRANCH 42 49
ATOM     49   O  IDS C   3      27.517 111.775  21.7550  0.00  0.00     0.000 O
ATOM     50   S  IDS C   3      27.944 113.038  20.8670  0.00  0.00     0.000 S
ATOM     51   O  IDS C   3      27.442 112.706  19.5520  0.00  0.00     0.000 OA
ATOM     52   O  IDS C   3      29.391 113.179  20.8930  0.00  0.00     0.000 OA
ATOM     53   O  IDS C   3      27.277 114.181  21.4530  0.00  0.00     0.000 OA
ENDBRANCH 42 49
BRANCH 45 54
ATOM     54   C  IDS C   3      25.710 108.166  24.2100  0.00  0.00     0.000 C
ATOM     55   O  IDS C   3      25.712 108.667  25.3040  0.00  0.00     0.000 OA
ATOM     56   O  IDS C   3      24.890 107.315  23.9250  0.00  0.00     0.000 OA
ENDBRANCH 45 54
BRANCH 41 57
ATOM     57  O4  SGN C   4      29.621 109.024  22.6740  0.00  0.00     0.000 O
BRANCH 57 61
ATOM     58  C1  SGN C   4      32.374 106.718  24.8250  0.00  0.00     0.000 C
ATOM     59  C2  SGN C   4      30.888 106.371  25.0090  0.00  0.00     0.000 C
ATOM     60  C3  SGN C   4      30.033 106.982  23.8910  0.00  0.00     0.000 C
ATOM     61  C4  SGN C   4      30.297 108.476  23.8090  0.00  0.00     0.000 C
ATOM     62  C5  SGN C   4      31.793 108.748  23.6560  0.00  0.00     0.000 C
ATOM     63  O5  SGN C   4      32.534 108.126  24.7240  0.00  0.00     0.000 O
BRANCH 59 66
ATOM     64   N  SGN C   4      30.881 104.913  25.1690  0.00  0.00     0.000 N
ATOM     66  HD  SGN C   4      30.653 105.732  25.0060  0.00  0.00     0.000 HD
ATOM     66   O  SGN C   4      30.283 102.841  26.3020  0.00  0.00     0.000 OA
ATOM     67   O  SGN C   4      30.932 104.816  27.6160  0.00  0.00     0.000 OA
ATOM     68   S  SGN C   4      30.107 104.250  26.4080  0.00  0.00     0.000 S
ATOM     69   O  SGN C   4      28.795 104.786  26.4540  0.00  0.00     0.000 OA
ENDBRANCH 59 66
BRANCH 62 70
ATOM     70   C  SGN C   4      32.096 110.225  23.7070  0.00  0.00     0.000 C
ATOM     71   S  SGN C   4      31.576 112.389  24.9790  0.00  0.00     0.000 S
ATOM     72   O  SGN C   4      32.990 112.709  24.9850  0.00  0.00     0.000 OA
ATOM     73   O  SGN C   4      30.878 112.892  23.8130  0.00  0.00     0.000 OA
ATOM     74   O  SGN C   4      30.912 112.684  26.2280  0.00  0.00     0.000 OA
ATOM     75   O  SGN C   4      31.519 110.805  24.8830  0.00  0.00     0.000 O
ENDBRANCH 62 70
ENDBRANCH 57 61
ENDBRANCH 41 57
ENDBRANCH 40 44
ENDBRANCH 20 40
ENDBRANCH 19 23
ENDBRANCH 1 19
TORSDOF 14
ENDMDL
MODEL 42
REMARK VINA RESULT:      -0.4    109.595    113.456
ROOT
ATOM      1  C1  IDS C   1      91.865  87.412  24.0230  0.00  0.00     0.000 C
ATOM      2  C2  IDS C   1      92.171  88.566  24.9600  0.00  0.00     0.000 C
ATOM      3  C3  IDS C   1      93.340  89.392  24.4370  0.00  0.00     0.000 C
ATOM      4  C4  IDS C   1      93.123  89.793  22.9780  0.00  0.00     0.000 C
ATOM      5  C5  IDS C   1      92.727  88.561  22.1400  0.00  0.00     0.000 C
ATOM      6  O5  IDS C   1      91.599  87.910  22.7130  0.00  0.00     0.000 O
ATOM      7   O  IDS C   1      94.550  88.646  24.5770  0.00  0.00     0.000 O
ATOM      9  HD  IDS C   1      94.754  89.157  23.9080  0.00  0.00     0.000 HD
ATOM      9   O  IDS C   1      92.074  90.771  22.9140  0.00  0.00     0.000 O
ATOM     11  HD  IDS C   1      92.277  91.282  22.2450  0.00  0.00     0.000 HD
ENDROOT
BRANCH 2 11
ATOM     11   O  IDS C   1      90.998  89.463  25.0650  0.00  0.00     0.000 O
ATOM     12   S  IDS C   1      90.202  89.604  26.4440  0.00  0.00     0.000 S
ATOM     13   O  IDS C   1      89.797  90.993  26.4230  0.00  0.00     0.000 OA
ATOM     14   O  IDS C   1      91.086  89.291  27.5410  0.00  0.00     0.000 OA
ATOM     15   O  IDS C   1      89.100  88.683  26.3220  0.00  0.00     0.000 OA
ENDBRANCH 2 11
BRANCH 5 16
ATOM     16   C  IDS C   1      92.383  88.901  20.7010  0.00  0.00     0.000 C
ATOM     17   O  IDS C   1      92.040  88.008  19.9550  0.00  0.00     0.000 OA
ATOM     18   O  IDS C   1      92.463  90.029  20.2990  0.00  0.00     0.000 OA
ENDBRANCH 5 16
BRANCH 1 19
ATOM     19  O4  SGN C   2      92.616  86.308  24.0870  0.00  0.00     0.000 O
BRANCH 19 23
ATOM     20  C1  SGN C   2      92.664  82.158  23.6410  0.00  0.00     0.000 C
ATOM     21  C2  SGN C   2      92.462  82.981  22.3640  0.00  0.00     0.000 C
ATOM     22  C3  SGN C   2      92.897  84.424  22.6060  0.00  0.00     0.000 C
ATOM     23  C4  SGN C   2      92.122  85.002  23.7860  0.00  0.00     0.000 C
ATOM     24  C5  SGN C   2      92.287  84.096  25.0090  0.00  0.00     0.000 C
ATOM     25  O5  SGN C   2      91.897  82.751  24.6770  0.00  0.00     0.000 O
ATOM     26   O  SGN C   2      92.701  85.207  21.4340  0.00  0.00     0.000 O
ATOM     28  HD  SGN C   2      92.616  85.594  20.6640  0.00  0.00     0.000 HD
BRANCH 21 30
ATOM     28   N  SGN C   2      93.086  81.932  21.5460  0.00  0.00     0.000 N
ATOM     30  HD  SGN C   2      93.550  82.177  20.8570  0.00  0.00     0.000 HD
ATOM     30   S  SGN C   2      92.360  81.357  20.2420  0.00  0.00     0.000 S
ATOM     31   O  SGN C   2      92.055  82.498  19.4460  0.00  0.00     0.000 OA
ATOM     32   O  SGN C   2      93.155  80.314  19.7080  0.00  0.00     0.000 OA
ATOM     33   O  SGN C   2      91.051  80.697  20.7950  0.00  0.00     0.000 OA
ENDBRANCH 21 30
BRANCH 24 34
ATOM     34   C  SGN C   2      91.436  84.507  26.1880  0.00  0.00     0.000 C
ATOM     35   O  SGN C   2      92.268  85.172  27.1550  0.00  0.00     0.000 O
ATOM     36   S  SGN C   2      91.709  85.268  28.6480  0.00  0.00     0.000 S
ATOM     37   O  SGN C   2      91.392  83.901  29.0110  0.00  0.00     0.000 OA
ATOM     38   O  SGN C   2      92.781  85.836  29.4290  0.00  0.00     0.000 OA
ATOM     39   O  SGN C   2      90.555  86.126  28.5330  0.00  0.00     0.000 OA
ENDBRANCH 24 34
BRANCH 20 40
ATOM     40  O4  IDS C   3      93.912  81.980  24.0680  0.00  0.00     0.000 O
BRANCH 40 44
ATOM     41  C1  IDS C   3      97.240  81.221  24.9480  0.00  0.00     0.000 C
ATOM     42  C2  IDS C   3      96.698  80.931  23.5510  0.00  0.00     0.000 C
ATOM     43  C3  IDS C   3      95.402  80.129  23.6410  0.00  0.00     0.000 C
ATOM     44  C4  IDS C   3      94.417  80.759  24.6140  0.00  0.00     0.000 C
ATOM     45  C5  IDS C   3      95.116  81.040  25.9600  0.00  0.00     0.000 C
ATOM     46  O5  IDS C   3      96.254  81.876  25.7410  0.00  0.00     0.000 O
ATOM     47   O  IDS C   3      95.698  78.795  24.0450  0.00  0.00     0.000 O
ATOM     49  HD  IDS C   3      95.679  79.433  23.4600  0.00  0.00     0.000 HD
BRANCH 42 49
ATOM     49   O  IDS C   3      96.422  82.199  22.8370  0.00  0.00     0.000 O
ATOM     50   S  IDS C   3      96.948  82.396  21.3370  0.00  0.00     0.000 S
ATOM     51   O  IDS C   3      96.091  81.523  20.5660  0.00  0.00     0.000 OA
ATOM     52   O  IDS C   3      98.348  82.012  21.2610  0.00  0.00     0.000 OA
ATOM     53   O  IDS C   3      96.751  83.796  21.0270  0.00  0.00     0.000 OA
ENDBRANCH 42 49
BRANCH 45 54
ATOM     54   C  IDS C   3      94.208  81.709  26.9810  0.00  0.00     0.000 C
ATOM     55   O  IDS C   3      94.524  82.769  27.4550  0.00  0.00     0.000 OA
ATOM     56   O  IDS C   3      93.179  81.163  27.3270  0.00  0.00     0.000 OA
ENDBRANCH 45 54
BRANCH 41 57
ATOM     57  O4  SGN C   4      97.846  80.106  25.3730  0.00  0.00     0.000 O
BRANCH 57 61
ATOM     58  C1  SGN C   4     100.305  78.898  28.5390  0.00  0.00     0.000 C
ATOM     59  C2  SGN C   4      98.870  79.316  28.8990  0.00  0.00     0.000 C
ATOM     60  C3  SGN C   4      97.969  79.334  27.6560  0.00  0.00     0.000 C
ATOM     61  C4  SGN C   4      98.601  80.207  26.5840  0.00  0.00     0.000 C
ATOM     62  C5  SGN C   4     100.032  79.753  26.2990  0.00  0.00     0.000 C
ATOM     63  O5  SGN C   4     100.810  79.737  27.5110  0.00  0.00     0.000 O
BRANCH 59 66
ATOM     64   N  SGN C   4      98.516  78.425  30.0090  0.00  0.00     0.000 N
ATOM     66  HD  SGN C   4      98.481  78.958  29.3270  0.00  0.00     0.000 HD
ATOM     66   O  SGN C   4      97.661  77.945  32.2380  0.00  0.00     0.000 OA
ATOM     67   O  SGN C   4      99.077  79.920  31.8670  0.00  0.00     0.000 OA
ATOM     68   S  SGN C   4      97.888  79.036  31.3530  0.00  0.00     0.000 S
ATOM     69   O  SGN C   4      96.805  79.880  30.9960  0.00  0.00     0.000 OA
ENDBRANCH 59 66
BRANCH 62 70
ATOM     70   C  SGN C   4     100.727  80.684  25.3370  0.00  0.00     0.000 C
ATOM     71   S  SGN C   4     101.235  83.153  24.8670  0.00  0.00     0.000 S
ATOM     72   O  SGN C   4     102.613  82.801  24.5850  0.00  0.00     0.000 OA
ATOM     73   O  SGN C   4     100.378  83.095  23.7000  0.00  0.00     0.000 OA
ATOM     74   O  SGN C   4     101.094  84.370  25.6330  0.00  0.00     0.000 OA
ATOM     75   O  SGN C   4     100.722  82.020  25.8550  0.00  0.00     0.000 O
ENDBRANCH 62 70
ENDBRANCH 57 61
ENDBRANCH 41 57
ENDBRANCH 40 44
ENDBRANCH 20 40
ENDBRANCH 19 23
ENDBRANCH 1 19
TORSDOF 14
ENDMDL
MODEL 43
REMARK VINA RESULT:      -0.4     58.871     64.581
ROOT
ATOM      1  C1  IDS C   1      15.685   8.053  89.7090  0.00  0.00     0.000 C
ATOM      2  C2  IDS C   1      14.650   9.097  89.3280  0.00  0.00     0.000 C
ATOM      3  C3  IDS C   1      14.053   8.792  87.9600  0.00  0.00     0.000 C
ATOM      4  C4  IDS C   1      13.561   7.347  87.8820  0.00  0.00     0.000 C
ATOM      5  C5  IDS C   1      14.656   6.382  88.3800  0.00  0.00     0.000 C
ATOM      6  O5  IDS C   1      15.093   6.755  89.6830  0.00  0.00     0.000 O
ATOM      7   O  IDS C   1      15.029   9.043  86.9470  0.00  0.00     0.000 O
ATOM      9  HD  IDS C   1      14.542   8.443  86.5550  0.00  0.00     0.000 HD
ATOM      9   O  IDS C   1      12.393   7.207  88.7060  0.00  0.00     0.000 O
ATOM     11  HD  IDS C   1      11.906   6.607  88.3140  0.00  0.00     0.000 HD
ENDROOT
BRANCH 2 11
ATOM     11   O  IDS C   1      13.544   9.103  90.3100  0.00  0.00     0.000 O
ATOM     12   S  IDS C   1      13.321  10.355  91.2780  0.00  0.00     0.000 S
ATOM     13   O  IDS C   1      11.881  10.393  91.4040  0.00  0.00     0.000 OA
ATOM     14   O  IDS C   1      13.864  11.540  90.6580  0.00  0.00     0.000 OA
ATOM     15   O  IDS C   1      13.995   9.994  92.5000  0.00  0.00     0.000 OA
ENDBRANCH 2 11
BRANCH 5 16
ATOM     16   C  IDS C   1      14.199   4.936  88.4410  0.00  0.00     0.000 C
ATOM     17   O  IDS C   1      14.980   4.093  88.8290  0.00  0.00     0.000 OA
ATOM     18   O  IDS C   1      13.092   4.625  88.0980  0.00  0.00     0.000 OA
ENDBRANCH 5 16
BRANCH 1 19
ATOM     19  O4  SGN C   2      16.917   8.143  89.1990  0.00  0.00     0.000 O
BRANCH 19 23
ATOM     20  C1  SGN C   2      20.967   7.387  89.8660  0.00  0.00     0.000 C
ATOM     21  C2  SGN C   2      20.077   6.166  89.6010  0.00  0.00     0.000 C
ATOM     22  C3  SGN C   2      18.766   6.614  88.9600  0.00  0.00     0.000 C
ATOM     23  C4  SGN C   2      18.080   7.637  89.8560  0.00  0.00     0.000 C
ATOM     24  C5  SGN C   2      19.040   8.790  90.1600  0.00  0.00     0.000 C
ATOM     25  O5  SGN C   2      20.262   8.273  90.7190  0.00  0.00     0.000 O
ATOM     26   O  SGN C   2      17.921   5.494  88.7220  0.00  0.00     0.000 O
ATOM     28  HD  SGN C   2      17.499   4.758  88.5490  0.00  0.00     0.000 HD
BRANCH 21 30
ATOM     28   N  SGN C   2      21.273   5.466  89.1150  0.00  0.00     0.000 N
ATOM     30  HD  SGN C   2      21.197   4.980  88.4020  0.00  0.00     0.000 HD
ATOM     30   S  SGN C   2      21.572   3.950  89.5280  0.00  0.00     0.000 S
ATOM     31   O  SGN C   2      20.394   3.227  89.1850  0.00  0.00     0.000 OA
ATOM     32   O  SGN C   2      22.820   3.571  88.9770  0.00  0.00     0.000 OA
ATOM     33   O  SGN C   2      21.757   4.009  91.0830  0.00  0.00     0.000 OA
ENDBRANCH 21 30
BRANCH 24 34
ATOM     34   C  SGN C   2      18.500   9.783  91.1620  0.00  0.00     0.000 C
ATOM     35   O  SGN C   2      18.015  10.940  90.4590  0.00  0.00     0.000 O
ATOM     36   S  SGN C   2      17.844  12.284  91.3040  0.00  0.00     0.000 S
ATOM     37   O  SGN C   2      19.135  12.494  91.9280  0.00  0.00     0.000 OA
ATOM     38   O  SGN C   2      17.496  13.305  90.3460  0.00  0.00     0.000 OA
ATOM     39   O  SGN C   2      16.787  11.976  92.2360  0.00  0.00     0.000 OA
ENDBRANCH 24 34
BRANCH 20 40
ATOM     40  O4  IDS C   3      21.417   8.060  88.8100  0.00  0.00     0.000 O
BRANCH 40 44
ATOM     41  C1  IDS C   3      22.882   9.594  85.9940  0.00  0.00     0.000 C
ATOM     42  C2  IDS C   3      23.005   8.093  86.2390  0.00  0.00     0.000 C
ATOM     43  C3  IDS C   3      23.522   7.827  87.6510  0.00  0.00     0.000 C
ATOM     44  C4  IDS C   3      22.735   8.604  88.6950  0.00  0.00     0.000 C
ATOM     45  C5  IDS C   3      22.651  10.091  88.2900  0.00  0.00     0.000 C
ATOM     46  O5  IDS C   3      22.064  10.199  86.9920  0.00  0.00     0.000 O
ATOM     47   O  IDS C   3      24.902   8.177  87.7240  0.00  0.00     0.000 O
ATOM     49  HD  IDS C   3      24.254   7.656  87.4810  0.00  0.00     0.000 HD
BRANCH 42 49
ATOM     49   O  IDS C   3      21.684   7.442  86.0880  0.00  0.00     0.000 O
ATOM     50   S  IDS C   3      21.562   6.078  85.2560  0.00  0.00     0.000 S
ATOM     51   O  IDS C   3      22.186   5.102  86.1210  0.00  0.00     0.000 OA
ATOM     52   O  IDS C   3      22.256   6.223  83.9860  0.00  0.00     0.000 OA
ATOM     53   O  IDS C   3      20.144   5.847  85.0760  0.00  0.00     0.000 OA
ENDBRANCH 42 49
BRANCH 45 54
ATOM     54   C  IDS C   3      21.843  10.935  89.2640  0.00  0.00     0.000 C
ATOM     55   O  IDS C   3      20.883  11.545  88.8700  0.00  0.00     0.000 OA
ATOM     56   O  IDS C   3      22.179  11.004  90.4300  0.00  0.00     0.000 OA
ENDBRANCH 45 54
BRANCH 41 57
ATOM     57  O4  SGN C   4      24.113  10.051  85.7340  0.00  0.00     0.000 O
BRANCH 57 61
ATOM     58  C1  SGN C   4      25.902  13.505  84.1840  0.00  0.00     0.000 C
ATOM     59  C2  SGN C   4      25.125  13.660  85.5020  0.00  0.00     0.000 C
ATOM     60  C3  SGN C   4      24.880  12.298  86.1650  0.00  0.00     0.000 C
ATOM     61  C4  SGN C   4      24.205  11.365  85.1740  0.00  0.00     0.000 C
ATOM     62  C5  SGN C   4      25.014  11.281  83.8800  0.00  0.00     0.000 C
ATOM     63  O5  SGN C   4      25.226  12.595  83.3280  0.00  0.00     0.000 O
BRANCH 59 66
ATOM     64   N  SGN C   4      25.889  14.671  86.2400  0.00  0.00     0.000 N
ATOM     66  HD  SGN C   4      25.367  14.012  86.0310  0.00  0.00     0.000 HD
ATOM     66   O  SGN C   4      26.123  16.730  87.5210  0.00  0.00     0.000 OA
ATOM     67   O  SGN C   4      24.593  16.648  85.5980  0.00  0.00     0.000 OA
ATOM     68   S  SGN C   4      25.132  15.931  86.8840  0.00  0.00     0.000 S
ATOM     69   O  SGN C   4      24.032  15.452  87.6410  0.00  0.00     0.000 OA
ENDBRANCH 59 66
BRANCH 62 70
ATOM     70   C  SGN C   4      24.298  10.468  82.8310  0.00  0.00     0.000 C
ATOM     71   S  SGN C   4      22.066  10.208  81.5980  0.00  0.00     0.000 S
ATOM     72   O  SGN C   4      22.787  10.079  80.3480  0.00  0.00     0.000 OA
ATOM     73   O  SGN C   4      21.855   8.943  82.2720  0.00  0.00     0.000 OA
ATOM     74   O  SGN C   4      20.875  11.020  81.4970  0.00  0.00     0.000 OA
ATOM     75   O  SGN C   4      23.027  11.058  82.5350  0.00  0.00     0.000 O
ENDBRANCH 62 70
ENDBRANCH 57 61
ENDBRANCH 41 57
ENDBRANCH 40 44
ENDBRANCH 20 40
ENDBRANCH 19 23
ENDBRANCH 1 19
TORSDOF 14
ENDMDL
MODEL 44
REMARK VINA RESULT:      -0.4     64.497     69.551
ROOT
ATOM      1  C1  IDS C   1      20.645  69.940  57.8640  0.00  0.00     0.000 C
ATOM      2  C2  IDS C   1      20.804  71.258  58.6000  0.00  0.00     0.000 C
ATOM      3  C3  IDS C   1      22.271  71.531  58.9080  0.00  0.00     0.000 C
ATOM      4  C4  IDS C   1      23.133  71.392  57.6530  0.00  0.00     0.000 C
ATOM      5  C5  IDS C   1      22.821  70.063  56.9360  0.00  0.00     0.000 C
ATOM      6  O5  IDS C   1      21.427  69.956  56.6700  0.00  0.00     0.000 O
ATOM      7   O  IDS C   1      22.720  70.634  59.9250  0.00  0.00     0.000 O
ATOM      9  HD  IDS C   1      23.465  70.795  59.5130  0.00  0.00     0.000 HD
ATOM      9   O  IDS C   1      22.851  72.488  56.7690  0.00  0.00     0.000 O
ATOM     11  HD  IDS C   1      23.595  72.648  56.3570  0.00  0.00     0.000 HD
ENDROOT
BRANCH 2 11
ATOM     11   O  IDS C   1      20.304  72.373  57.7660  0.00  0.00     0.000 O
ATOM     12   S  IDS C   1      18.997  73.187  58.1940  0.00  0.00     0.000 S
ATOM     13   O  IDS C   1      19.305  74.524  57.7380  0.00  0.00     0.000 OA
ATOM     14   O  IDS C   1      18.828  73.104  59.6250  0.00  0.00     0.000 OA
ATOM     15   O  IDS C   1      17.924  72.563  57.4590  0.00  0.00     0.000 OA
ENDBRANCH 2 11
BRANCH 5 16
ATOM     16   C  IDS C   1      23.557  69.906  55.6170  0.00  0.00     0.000 C
ATOM     17   O  IDS C   1      23.353  68.915  54.9490  0.00  0.00     0.000 OA
ATOM     18   O  IDS C   1      24.339  70.737  55.2460  0.00  0.00     0.000 OA
ENDBRANCH 5 16
BRANCH 1 19
ATOM     19  O4  SGN C   2      20.666  68.800  58.5610  0.00  0.00     0.000 O
BRANCH 19 23
ATOM     20  C1  SGN C   2      19.222  64.890  58.7860  0.00  0.00     0.000 C
ATOM     21  C2  SGN C   2      20.237  65.182  57.6750  0.00  0.00     0.000 C
ATOM     22  C3  SGN C   2      20.980  66.479  57.9830  0.00  0.00     0.000 C
ATOM     23  C4  SGN C   2      19.979  67.616  58.1540  0.00  0.00     0.000 C
ATOM     24  C5  SGN C   2      18.938  67.237  59.2110  0.00  0.00     0.000 C
ATOM     25  O5  SGN C   2      18.322  65.983  58.8620  0.00  0.00     0.000 O
ATOM     26   O  SGN C   2      21.917  66.774  56.9530  0.00  0.00     0.000 O
ATOM     28  HD  SGN C   2      22.507  66.843  56.3230  0.00  0.00     0.000 HD
BRANCH 21 30
ATOM     28   N  SGN C   2      20.659  63.775  57.7020  0.00  0.00     0.000 N
ATOM     30  HD  SGN C   2      21.501  63.602  57.5950  0.00  0.00     0.000 HD
ATOM     30   S  SGN C   2      20.812  62.928  56.3530  0.00  0.00     0.000 S
ATOM     31   O  SGN C   2      21.679  63.695  55.5240  0.00  0.00     0.000 OA
ATOM     32   O  SGN C   2      21.154  61.598  56.6940  0.00  0.00     0.000 OA
ATOM     33   O  SGN C   2      19.362  62.892  55.7610  0.00  0.00     0.000 OA
ENDBRANCH 21 30
BRANCH 24 34
ATOM     34   C  SGN C   2      17.816  68.240  59.3450  0.00  0.00     0.000 C
ATOM     35   O  SGN C   2      18.010  68.999  60.5520  0.00  0.00     0.000 O
ATOM     36   S  SGN C   2      16.738  69.765  61.1380  0.00  0.00     0.000 S
ATOM     37   O  SGN C   2      15.718  68.743  61.2650  0.00  0.00     0.000 OA
ATOM     38   O  SGN C   2      17.163  70.311  62.4040  0.00  0.00     0.000 OA
ATOM     39   O  SGN C   2      16.444  70.765  60.1420  0.00  0.00     0.000 OA
ENDBRANCH 24 34
BRANCH 20 40
ATOM     40  O4  IDS C   3      19.698  64.628  60.0010  0.00  0.00     0.000 O
BRANCH 40 44
ATOM     41  C1  IDS C   3      21.024  63.556  63.0860  0.00  0.00     0.000 C
ATOM     42  C2  IDS C   3      21.405  62.876  61.7740  0.00  0.00     0.000 C
ATOM     43  C3  IDS C   3      20.152  62.478  60.9990  0.00  0.00     0.000 C
ATOM     44  C4  IDS C   3      19.171  63.634  60.8820  0.00  0.00     0.000 C
ATOM     45  C5  IDS C   3      18.920  64.251  62.2740  0.00  0.00     0.000 C
ATOM     46  O5  IDS C   3      20.163  64.665  62.8430  0.00  0.00     0.000 O
ATOM     47   O  IDS C   3      19.526  61.373  61.6460  0.00  0.00     0.000 O
ATOM     49  HD  IDS C   3      20.148  61.723  61.1560  0.00  0.00     0.000 HD
BRANCH 42 49
ATOM     49   O  IDS C   3      22.207  63.798  60.9370  0.00  0.00     0.000 O
ATOM     50   S  IDS C   3      23.561  63.278  60.2570  0.00  0.00     0.000 S
ATOM     51   O  IDS C   3      23.092  62.392  59.2150  0.00  0.00     0.000 OA
ATOM     52   O  IDS C   3      24.369  62.591  61.2520  0.00  0.00     0.000 OA
ATOM     53   O  IDS C   3      24.224  64.456  59.7390  0.00  0.00     0.000 OA
ENDBRANCH 42 49
BRANCH 45 54
ATOM     54   C  IDS C   3      17.976  65.444  62.2420  0.00  0.00     0.000 C
ATOM     55   O  IDS C   3      18.320  66.489  62.7300  0.00  0.00     0.000 OA
ATOM     56   O  IDS C   3      16.875  65.333  61.7410  0.00  0.00     0.000 OA
ENDBRANCH 45 54
BRANCH 41 57
ATOM     57  O4  SGN C   4      20.683  62.587  63.9440  0.00  0.00     0.000 O
BRANCH 57 61
ATOM     58  C1  SGN C   4      19.797  62.190  68.0170  0.00  0.00     0.000 C
ATOM     59  C2  SGN C   4      18.822  63.030  67.1760  0.00  0.00     0.000 C
ATOM     60  C3  SGN C   4      19.013  62.765  65.6760  0.00  0.00     0.000 C
ATOM     61  C4  SGN C   4      20.470  62.979  65.3040  0.00  0.00     0.000 C
ATOM     62  C5  SGN C   4      21.381  62.138  66.1970  0.00  0.00     0.000 C
ATOM     63  O5  SGN C   4      21.130  62.421  67.5870  0.00  0.00     0.000 O
BRANCH 59 66
ATOM     64   N  SGN C   4      17.508  62.751  67.7650  0.00  0.00     0.000 N
ATOM     66  HD  SGN C   4      18.146  62.975  67.2230  0.00  0.00     0.000 HD
ATOM     66   O  SGN C   4      15.366  63.390  68.7310  0.00  0.00     0.000 OA
ATOM     67   O  SGN C   4      17.400  64.638  69.3230  0.00  0.00     0.000 OA
ATOM     68   S  SGN C   4      16.550  63.965  68.1900  0.00  0.00     0.000 S
ATOM     69   O  SGN C   4      16.451  64.861  67.0940  0.00  0.00     0.000 OA
ENDBRANCH 59 66
BRANCH 62 70
ATOM     70   C  SGN C   4      22.837  62.433  65.9390  0.00  0.00     0.000 C
ATOM     71   S  SGN C   4      24.540  64.334  65.7020  0.00  0.00     0.000 S
ATOM     72   O  SGN C   4      25.458  63.598  66.5480  0.00  0.00     0.000 OA
ATOM     73   O  SGN C   4      24.679  64.019  64.2940  0.00  0.00     0.000 OA
ATOM     74   O  SGN C   4      24.507  65.752  65.9800  0.00  0.00     0.000 OA
ATOM     75   O  SGN C   4      23.098  63.828  66.1320  0.00  0.00     0.000 O
ENDBRANCH 62 70
ENDBRANCH 57 61
ENDBRANCH 41 57
ENDBRANCH 40 44
ENDBRANCH 20 40
ENDBRANCH 19 23
ENDBRANCH 1 19
TORSDOF 14
ENDMDL
MODEL 45
REMARK VINA RESULT:      -0.4     88.377     92.545
ROOT
ATOM      1  C1  IDS C   1      57.599  74.643  69.4130  0.00  0.00     0.000 C
ATOM      2  C2  IDS C   1      57.576  74.314  70.8950  0.00  0.00     0.000 C
ATOM      3  C3  IDS C   1      56.804  73.026  71.1510  0.00  0.00     0.000 C
ATOM      4  C4  IDS C   1      57.304  71.895  70.2520  0.00  0.00     0.000 C
ATOM      5  C5  IDS C   1      57.375  72.369  68.7870  0.00  0.00     0.000 C
ATOM      6  O5  IDS C   1      58.160  73.553  68.6840  0.00  0.00     0.000 O
ATOM      7   O  IDS C   1      55.411  73.255  70.9370  0.00  0.00     0.000 O
ATOM      9  HD  IDS C   1      55.461  72.407  70.7670  0.00  0.00     0.000 HD
ATOM      9   O  IDS C   1      58.613  71.496  70.6880  0.00  0.00     0.000 O
ATOM     11  HD  IDS C   1      58.664  70.649  70.5180  0.00  0.00     0.000 HD
ENDROOT
BRANCH 2 11
ATOM     11   O  IDS C   1      58.956  74.119  71.3960  0.00  0.00     0.000 O
ATOM     12   S  IDS C   1      59.611  75.169  72.4060  0.00  0.00     0.000 S
ATOM     13   O  IDS C   1      60.434  74.321  73.2390  0.00  0.00     0.000 OA
ATOM     14   O  IDS C   1      58.567  75.841  73.1420  0.00  0.00     0.000 OA
ATOM     15   O  IDS C   1      60.372  76.057  71.5620  0.00  0.00     0.000 OA
ENDBRANCH 2 11
BRANCH 5 16
ATOM     16   C  IDS C   1      57.973  71.335  67.8500  0.00  0.00     0.000 C
ATOM     17   O  IDS C   1      58.089  71.610  66.6740  0.00  0.00     0.000 OA
ATOM     18   O  IDS C   1      58.312  70.258  68.2570  0.00  0.00     0.000 OA
ENDBRANCH 5 16
BRANCH 1 19
ATOM     19  O4  SGN C   2      56.530  75.226  68.8620  0.00  0.00     0.000 O
BRANCH 19 23
ATOM     20  C1  SGN C   2      55.199  77.846  65.8970  0.00  0.00     0.000 C
ATOM     21  C2  SGN C   2      55.713  76.482  65.4240  0.00  0.00     0.000 C
ATOM     22  C3  SGN C   2      55.744  75.507  66.5980  0.00  0.00     0.000 C
ATOM     23  C4  SGN C   2      56.601  76.082  67.7200  0.00  0.00     0.000 C
ATOM     24  C5  SGN C   2      56.099  77.479  68.0940  0.00  0.00     0.000 C
ATOM     25  O5  SGN C   2      56.061  78.314  66.9220  0.00  0.00     0.000 O
ATOM     26   O  SGN C   2      56.234  74.238  66.1800  0.00  0.00     0.000 O
ATOM     28  HD  SGN C   2      56.475  73.483  65.8310  0.00  0.00     0.000 HD
BRANCH 21 30
ATOM     28   N  SGN C   2      54.921  76.758  64.2190  0.00  0.00     0.000 N
ATOM     30  HD  SGN C   2      54.365  76.151  63.9510  0.00  0.00     0.000 HD
ATOM     30   S  SGN C   2      55.404  76.261  62.7770  0.00  0.00     0.000 S
ATOM     31   O  SGN C   2      55.631  74.863  62.9170  0.00  0.00     0.000 OA
ATOM     32   O  SGN C   2      54.487  76.735  61.8080  0.00  0.00     0.000 OA
ATOM     33   O  SGN C   2      56.752  77.025  62.5430  0.00  0.00     0.000 OA
ENDBRANCH 21 30
BRANCH 24 34
ATOM     34   C  SGN C   2      56.977  78.191  69.0960  0.00  0.00     0.000 C
ATOM     35   O  SGN C   2      56.306  78.219  70.3680  0.00  0.00     0.000 O
ATOM     36   S  SGN C   2      56.806  79.303  71.4280  0.00  0.00     0.000 S
ATOM     37   O  SGN C   2      56.742  80.567  70.7220  0.00  0.00     0.000 OA
ATOM     38   O  SGN C   2      55.886  79.217  72.5360  0.00  0.00     0.000 OA
ATOM     39   O  SGN C   2      58.147  78.880  71.7520  0.00  0.00     0.000 OA
ENDBRANCH 24 34
BRANCH 20 40
ATOM     40  O4  IDS C   3      53.939  77.917  66.3200  0.00  0.00     0.000 O
BRANCH 40 44
ATOM     41  C1  IDS C   3      50.491  78.115  67.0280  0.00  0.00     0.000 C
ATOM     42  C2  IDS C   3      51.003  77.566  65.6990  0.00  0.00     0.000 C
ATOM     43  C3  IDS C   3      51.980  78.549  65.0590  0.00  0.00     0.000 C
ATOM     44  C4  IDS C   3      53.049  79.000  66.0410  0.00  0.00     0.000 C
ATOM     45  C5  IDS C   3      52.389  79.481  67.3510  0.00  0.00     0.000 C
ATOM     46  O5  IDS C   3      51.581  78.434  67.8900  0.00  0.00     0.000 O
ATOM     47   O  IDS C   3      51.262  79.678  64.5690  0.00  0.00     0.000 O
ATOM     49  HD  IDS C   3      51.514  78.851  64.5250  0.00  0.00     0.000 HD
BRANCH 42 49
ATOM     49   O  IDS C   3      51.701  76.277  65.9150  0.00  0.00     0.000 O
ATOM     50   S  IDS C   3      51.412  75.044  64.9340  0.00  0.00     0.000 S
ATOM     51   O  IDS C   3      52.061  75.437  63.7040  0.00  0.00     0.000 OA
ATOM     52   O  IDS C   3      49.976  74.876  64.7790  0.00  0.00     0.000 OA
ATOM     53   O  IDS C   3      52.030  73.890  65.5530  0.00  0.00     0.000 OA
ENDBRANCH 42 49
BRANCH 45 54
ATOM     54   C  IDS C   3      53.394  79.916  68.4070  0.00  0.00     0.000 C
ATOM     55   O  IDS C   3      53.378  79.398  69.4940  0.00  0.00     0.000 OA
ATOM     56   O  IDS C   3      54.196  80.794  68.1560  0.00  0.00     0.000 OA
ENDBRANCH 45 54
BRANCH 41 57
ATOM     57  O4  SGN C   4      49.546  79.018  66.7400  0.00  0.00     0.000 O
BRANCH 57 61
ATOM     58  C1  SGN C   4      46.588  81.194  68.7510  0.00  0.00     0.000 C
ATOM     59  C2  SGN C   4      48.047  81.499  69.1280  0.00  0.00     0.000 C
ATOM     60  C3  SGN C   4      49.017  80.964  68.0660  0.00  0.00     0.000 C
ATOM     61  C4  SGN C   4      48.751  79.486  67.8340  0.00  0.00     0.000 C
ATOM     62  C5  SGN C   4      47.279  79.253  67.4940  0.00  0.00     0.000 C
ATOM     63  O5  SGN C   4      46.429  79.802  68.5200  0.00  0.00     0.000 O
BRANCH 59 66
ATOM     64   N  SGN C   4      48.052  82.940  69.4020  0.00  0.00     0.000 N
ATOM     66  HD  SGN C   4      48.288  82.131  69.2030  0.00  0.00     0.000 HD
ATOM     66   O  SGN C   4      48.532  84.904  70.7610  0.00  0.00     0.000 OA
ATOM     67   O  SGN C   4      47.703  82.849  71.8250  0.00  0.00     0.000 OA
ATOM     68   S  SGN C   4      48.677  83.488  70.7750  0.00  0.00     0.000 S
ATOM     69   O  SGN C   4      49.967  82.921  70.9370  0.00  0.00     0.000 OA
ENDBRANCH 59 66
BRANCH 62 70
ATOM     70   C  SGN C   4      46.960  77.783  67.3920  0.00  0.00     0.000 C
ATOM     71   S  SGN C   4      47.203  75.535  68.6010  0.00  0.00     0.000 S
ATOM     72   O  SGN C   4      45.813  75.245  68.3110  0.00  0.00     0.000 OA
ATOM     73   O  SGN C   4      48.112  75.089  67.5640  0.00  0.00     0.000 OA
ATOM     74   O  SGN C   4      47.608  75.152  69.9340  0.00  0.00     0.000 OA
ATOM     75   O  SGN C   4      47.291  77.121  68.6180  0.00  0.00     0.000 O
ENDBRANCH 62 70
ENDBRANCH 57 61
ENDBRANCH 41 57
ENDBRANCH 40 44
ENDBRANCH 20 40
ENDBRANCH 19 23
ENDBRANCH 1 19
TORSDOF 14
ENDMDL
MODEL 46
REMARK VINA RESULT:      -0.4     43.153     47.714
ROOT
ATOM      1  C1  IDS C   1      55.930  11.481  16.6850  0.00  0.00     0.000 C
ATOM      2  C2  IDS C   1      56.410  12.575  15.7490  0.00  0.00     0.000 C
ATOM      3  C3  IDS C   1      55.276  13.053  14.8500  0.00  0.00     0.000 C
ATOM      4  C4  IDS C   1      54.036  13.411  15.6690  0.00  0.00     0.000 C
ATOM      5  C5  IDS C   1      53.696  12.271  16.6490  0.00  0.00     0.000 C
ATOM      6  O5  IDS C   1      54.826  11.954  17.4560  0.00  0.00     0.000 O
ATOM      7   O  IDS C   1      54.967  12.039  13.8920  0.00  0.00     0.000 O
ATOM      9  HD  IDS C   1      54.204  12.445  13.9470  0.00  0.00     0.000 HD
ATOM      9   O  IDS C   1      54.296  14.614  16.4090  0.00  0.00     0.000 O
ATOM     11  HD  IDS C   1      53.533  15.019  16.4640  0.00  0.00     0.000 HD
ENDROOT
BRANCH 2 11
ATOM     11   O  IDS C   1      56.888  13.740  16.5270  0.00  0.00     0.000 O
ATOM     12   S  IDS C   1      58.443  14.103  16.5740  0.00  0.00     0.000 S
ATOM     13   O  IDS C   1      58.419  15.548  16.6340  0.00  0.00     0.000 OA
ATOM     14   O  IDS C   1      59.089  13.599  15.3860  0.00  0.00     0.000 OA
ATOM     15   O  IDS C   1      58.923  13.486  17.7860  0.00  0.00     0.000 OA
ENDBRANCH 2 11
BRANCH 5 16
ATOM     16   C  IDS C   1      52.543  12.602  17.5790  0.00  0.00     0.000 C
ATOM     17   O  IDS C   1      52.139  11.746  18.3380  0.00  0.00     0.000 OA
ATOM     18   O  IDS C   1      52.025  13.685  17.5560  0.00  0.00     0.000 OA
ENDBRANCH 5 16
BRANCH 1 19
ATOM     19  O4  SGN C   2      55.827  10.231  16.2240  0.00  0.00     0.000 O
BRANCH 19 23
ATOM     20  C1  SGN C   2      56.026   6.182  17.2210  0.00  0.00     0.000 C
ATOM     21  C2  SGN C   2      54.794   6.949  17.7150  0.00  0.00     0.000 C
ATOM     22  C3  SGN C   2      54.646   8.249  16.9290  0.00  0.00     0.000 C
ATOM     23  C4  SGN C   2      55.921   9.074  17.0570  0.00  0.00     0.000 C
ATOM     24  C5  SGN C   2      57.129   8.234  16.6340  0.00  0.00     0.000 C
ATOM     25  O5  SGN C   2      57.164   7.012  17.3940  0.00  0.00     0.000 O
ATOM     26   O  SGN C   2      53.515   8.982  17.3860  0.00  0.00     0.000 O
ATOM     28  HD  SGN C   2      52.776   9.329  17.6740  0.00  0.00     0.000 HD
BRANCH 21 30
ATOM     28   N  SGN C   2      54.228   5.600  17.8510  0.00  0.00     0.000 N
ATOM     30  HD  SGN C   2      53.489   5.427  17.4350  0.00  0.00     0.000 HD
ATOM     30   S  SGN C   2      53.118   5.274  18.9550  0.00  0.00     0.000 S
ATOM     31   O  SGN C   2      52.085   6.232  18.7450  0.00  0.00     0.000 OA
ATOM     32   O  SGN C   2      52.821   3.891  18.8990  0.00  0.00     0.000 OA
ATOM     33   O  SGN C   2      53.848   5.531  20.3170  0.00  0.00     0.000 OA
ENDBRANCH 21 30
BRANCH 24 34
ATOM     34   C  SGN C   2      58.456   8.918  16.8670  0.00  0.00     0.000 C
ATOM     35   O  SGN C   2      58.944   9.428  15.6140  0.00  0.00     0.000 O
ATOM     36   S  SGN C   2      60.504   9.758  15.5240  0.00  0.00     0.000 S
ATOM     37   O  SGN C   2      61.164   8.536  15.9380  0.00  0.00     0.000 OA
ATOM     38   O  SGN C   2      60.749  10.105  14.1440  0.00  0.00     0.000 OA
ATOM     39   O  SGN C   2      60.680  10.858  16.4400  0.00  0.00     0.000 OA
ENDBRANCH 24 34
BRANCH 20 40
ATOM     40  O4  IDS C   3      56.005   5.723  15.9720  0.00  0.00     0.000 O
BRANCH 40 44
ATOM     41  C1  IDS C   3      55.768   4.217  12.7940  0.00  0.00     0.000 C
ATOM     42  C2  IDS C   3      54.710   3.984  13.8680  0.00  0.00     0.000 C
ATOM     43  C3  IDS C   3      55.365   3.537  15.1720  0.00  0.00     0.000 C
ATOM     44  C4  IDS C   3      56.515   4.451  15.5660  0.00  0.00     0.000 C
ATOM     45  C5  IDS C   3      57.475   4.632  14.3710  0.00  0.00     0.000 C
ATOM     46  O5  IDS C   3      56.750   5.144  13.2510  0.00  0.00     0.000 O
ATOM     47   O  IDS C   3      55.835   2.199  15.0310  0.00  0.00     0.000 O
ATOM     49  HD  IDS C   3      55.205   2.784  15.1350  0.00  0.00     0.000 HD
BRANCH 42 49
ATOM     49   O  IDS C   3      53.957   5.235  14.1200  0.00  0.00     0.000 O
ATOM     50   S  IDS C   3      52.371   5.176  14.3390  0.00  0.00     0.000 S
ATOM     51   O  IDS C   3      52.237   4.575  15.6470  0.00  0.00     0.000 OA
ATOM     52   O  IDS C   3      51.768   4.370  13.2900  0.00  0.00     0.000 OA
ATOM     53   O  IDS C   3      51.913   6.549  14.3000  0.00  0.00     0.000 OA
ENDBRANCH 42 49
BRANCH 45 54
ATOM     54   C  IDS C   3      58.637   5.567  14.6680  0.00  0.00     0.000 C
ATOM     55   O  IDS C   3      59.344   5.356  15.6190  0.00  0.00     0.000 OA
ATOM     56   O  IDS C   3      58.837   6.532  13.9560  0.00  0.00     0.000 OA
ENDBRANCH 45 54
BRANCH 41 57
ATOM     57  O4  SGN C   4      56.116   3.014  12.3200  0.00  0.00     0.000 O
BRANCH 57 61
ATOM     58  C1  SGN C   4      58.328   1.430   9.1380  0.00  0.00     0.000 C
ATOM     59  C2  SGN C   4      59.091   2.312  10.1390  0.00  0.00     0.000 C
ATOM     60  C3  SGN C   4      58.300   2.483  11.4430  0.00  0.00     0.000 C
ATOM     61  C4  SGN C   4      56.906   2.997  11.1270  0.00  0.00     0.000 C
ATOM     62  C5  SGN C   4      56.219   2.091  10.1060  0.00  0.00     0.000 C
ATOM     63  O5  SGN C   4      57.027   1.957   8.9220  0.00  0.00     0.000 O
BRANCH 59 66
ATOM     64   N  SGN C   4      60.421   1.695  10.1940  0.00  0.00     0.000 N
ATOM     66  HD  SGN C   4      59.701   2.136  10.3850  0.00  0.00     0.000 HD
ATOM     66   O  SGN C   4      62.856   1.741  10.1300  0.00  0.00     0.000 OA
ATOM     67   O  SGN C   4      61.561   3.144   8.5810  0.00  0.00     0.000 OA
ATOM     68   S  SGN C   4      61.731   2.610  10.0450  0.00  0.00     0.000 S
ATOM     69   O  SGN C   4      61.622   3.698  10.9490  0.00  0.00     0.000 OA
ENDBRANCH 59 66
BRANCH 62 70
ATOM     70   C  SGN C   4      54.887   2.653   9.6750  0.00  0.00     0.000 C
ATOM     71   S  SGN C   4      53.697   4.809   8.9640  0.00  0.00     0.000 S
ATOM     72   O  SGN C   4      53.068   4.086   7.8760  0.00  0.00     0.000 OA
ATOM     73   O  SGN C   4      52.930   4.777  10.1930  0.00  0.00     0.000 OA
ATOM     74   O  SGN C   4      54.150   6.130   8.5940  0.00  0.00     0.000 OA
ATOM     75   O  SGN C   4      55.040   4.014   9.2550  0.00  0.00     0.000 O
ENDBRANCH 62 70
ENDBRANCH 57 61
ENDBRANCH 41 57
ENDBRANCH 40 44
ENDBRANCH 20 40
ENDBRANCH 19 23
ENDBRANCH 1 19
TORSDOF 14
ENDMDL
MODEL 47
REMARK VINA RESULT:      -0.4     86.754     92.642
ROOT
ATOM      1  C1  IDS C   1      49.166  87.972  33.0850  0.00  0.00     0.000 C
ATOM      2  C2  IDS C   1      47.729  88.154  32.6300  0.00  0.00     0.000 C
ATOM      3  C3  IDS C   1      47.583  89.416  31.7890  0.00  0.00     0.000 C
ATOM      4  C4  IDS C   1      48.619  89.453  30.6650  0.00  0.00     0.000 C
ATOM      5  C5  IDS C   1      50.026  89.164  31.2270  0.00  0.00     0.000 C
ATOM      6  O5  IDS C   1      50.031  87.939  31.9510  0.00  0.00     0.000 O
ATOM      7   O  IDS C   1      47.714  90.565  32.6280  0.00  0.00     0.000 O
ATOM      9  HD  IDS C   1      47.977  90.890  31.8700  0.00  0.00     0.000 HD
ATOM      9   O  IDS C   1      48.283  88.457  29.6870  0.00  0.00     0.000 O
ATOM     11  HD  IDS C   1      48.545  88.782  28.9290  0.00  0.00     0.000 HD
ENDROOT
BRANCH 2 11
ATOM     11   O  IDS C   1      47.309  87.006  31.7940  0.00  0.00     0.000 O
ATOM     12   S  IDS C   1      46.217  85.968  32.3280  0.00  0.00     0.000 S
ATOM     13   O  IDS C   1      45.515  85.611  31.1150  0.00  0.00     0.000 OA
ATOM     14   O  IDS C   1      45.371  86.620  33.2980  0.00  0.00     0.000 OA
ATOM     15   O  IDS C   1      46.989  84.885  32.8850  0.00  0.00     0.000 OA
ENDBRANCH 2 11
BRANCH 5 16
ATOM     16   C  IDS C   1      51.093  89.071  30.1510  0.00  0.00     0.000 C
ATOM     17   O  IDS C   1      52.236  88.833  30.4810  0.00  0.00     0.000 OA
ATOM     18   O  IDS C   1      50.819  89.244  28.9960  0.00  0.00     0.000 OA
ENDBRANCH 5 16
BRANCH 1 19
ATOM     19  O4  SGN C   2      49.607  88.670  34.1360  0.00  0.00     0.000 O
BRANCH 19 23
ATOM     20  C1  SGN C   2      52.207  88.678  37.4010  0.00  0.00     0.000 C
ATOM     21  C2  SGN C   2      52.849  88.810  36.0140  0.00  0.00     0.000 C
ATOM     22  C3  SGN C   2      51.791  89.225  34.9940  0.00  0.00     0.000 C
ATOM     23  C4  SGN C   2      50.649  88.216  35.0010  0.00  0.00     0.000 C
ATOM     24  C5  SGN C   2      50.103  88.058  36.4230  0.00  0.00     0.000 C
ATOM     25  O5  SGN C   2      51.173  87.711  37.3200  0.00  0.00     0.000 O
ATOM     26   O  SGN C   2      52.367  89.337  33.6980  0.00  0.00     0.000 O
ATOM     28  HD  SGN C   2      52.806  89.449  32.9600  0.00  0.00     0.000 HD
BRANCH 21 30
ATOM     28   N  SGN C   2      53.983  89.387  36.7470  0.00  0.00     0.000 N
ATOM     30  HD  SGN C   2      54.294  90.149  36.4790  0.00  0.00     0.000 HD
ATOM     30   S  SGN C   2      55.490  89.152  36.2630  0.00  0.00     0.000 S
ATOM     31   O  SGN C   2      55.515  89.560  34.8990  0.00  0.00     0.000 OA
ATOM     32   O  SGN C   2      56.362  89.758  37.1990  0.00  0.00     0.000 OA
ATOM     33   O  SGN C   2      55.691  87.603  36.3860  0.00  0.00     0.000 OA
ENDBRANCH 21 30
BRANCH 24 34
ATOM     34   C  SGN C   2      49.065  86.969  36.5560  0.00  0.00     0.000 C
ATOM     35   O  SGN C   2      47.774  87.575  36.7470  0.00  0.00     0.000 O
ATOM     36   S  SGN C   2      46.627  86.657  37.3730  0.00  0.00     0.000 S
ATOM     37   O  SGN C   2      47.200  86.137  38.5990  0.00  0.00     0.000 OA
ATOM     38   O  SGN C   2      45.503  87.534  37.5910  0.00  0.00     0.000 OA
ATOM     39   O  SGN C   2      46.394  85.653  36.3630  0.00  0.00     0.000 OA
ENDBRANCH 24 34
BRANCH 20 40
ATOM     40  O4  IDS C   3      51.729  89.784  37.9650  0.00  0.00     0.000 O
BRANCH 40 44
ATOM     41  C1  IDS C   3      50.873  92.806  39.5670  0.00  0.00     0.000 C
ATOM     42  C2  IDS C   3      52.274  92.567  39.0100  0.00  0.00     0.000 C
ATOM     43  C3  IDS C   3      52.836  91.248  39.5340  0.00  0.00     0.000 C
ATOM     44  C4  IDS C   3      51.850  90.104  39.3540  0.00  0.00     0.000 C
ATOM     45  C5  IDS C   3      50.471  90.506  39.9170  0.00  0.00     0.000 C
ATOM     46  O5  IDS C   3      50.023  91.700  39.2730  0.00  0.00     0.000 O
ATOM     47   O  IDS C   3      53.168  91.390  40.9130  0.00  0.00     0.000 O
ATOM     49  HD  IDS C   3      53.315  91.526  40.0700  0.00  0.00     0.000 HD
BRANCH 42 49
ATOM     49   O  IDS C   3      52.230  92.508  37.5300  0.00  0.00     0.000 O
ATOM     50   S  IDS C   3      53.327  93.300  36.6720  0.00  0.00     0.000 S
ATOM     51   O  IDS C   3      54.534  92.531  36.8830  0.00  0.00     0.000 OA
ATOM     52   O  IDS C   3      53.439  94.661  37.1690  0.00  0.00     0.000 OA
ATOM     53   O  IDS C   3      52.866  93.258  35.3000  0.00  0.00     0.000 OA
ENDBRANCH 42 49
BRANCH 45 54
ATOM     54   C  IDS C   3      49.411  89.429  39.7410  0.00  0.00     0.000 C
ATOM     55   O  IDS C   3      48.387  89.689  39.1630  0.00  0.00     0.000 OA
ATOM     56   O  IDS C   3      49.594  88.318  40.1980  0.00  0.00     0.000 OA
ENDBRANCH 45 54
BRANCH 41 57
ATOM     57  O4  SGN C   4      51.022  93.254  40.8190  0.00  0.00     0.000 O
BRANCH 57 61
ATOM     58  C1  SGN C   4      48.665  94.973  43.8220  0.00  0.00     0.000 C
ATOM     59  C2  SGN C   4      48.319  93.532  43.4120  0.00  0.00     0.000 C
ATOM     60  C3  SGN C   4      49.472  92.886  42.6320  0.00  0.00     0.000 C
ATOM     61  C4  SGN C   4      49.851  93.774  41.4580  0.00  0.00     0.000 C
ATOM     62  C5  SGN C   4      50.152  95.194  41.9350  0.00  0.00     0.000 C
ATOM     63  O5  SGN C   4      49.039  95.726  42.6780  0.00  0.00     0.000 O
BRANCH 59 66
ATOM     64   N  SGN C   4      47.890  92.897  44.6620  0.00  0.00     0.000 N
ATOM     66  HD  SGN C   4      48.185  93.039  43.8600  0.00  0.00     0.000 HD
ATOM     66   O  SGN C   4      46.348  91.614  46.0440  0.00  0.00     0.000 OA
ATOM     67   O  SGN C   4      45.479  93.274  44.4520  0.00  0.00     0.000 OA
ATOM     68   S  SGN C   4      46.494  92.108  44.7170  0.00  0.00     0.000 S
ATOM     69   O  SGN C   4      46.449  91.200  43.6280  0.00  0.00     0.000 OA
ENDBRANCH 59 66
BRANCH 62 70
ATOM     70   C  SGN C   4      50.400  96.127  40.7760  0.00  0.00     0.000 C
ATOM     71   S  SGN C   4      49.459  96.902  38.5220  0.00  0.00     0.000 S
ATOM     72   O  SGN C   4      49.711  98.277  38.9050  0.00  0.00     0.000 OA
ATOM     73   O  SGN C   4      50.582  96.278  37.8520  0.00  0.00     0.000 OA
ATOM     74   O  SGN C   4      48.197  96.714  37.8430  0.00  0.00     0.000 OA
ATOM     75   O  SGN C   4      49.271  96.127  39.8950  0.00  0.00     0.000 O
ENDBRANCH 62 70
ENDBRANCH 57 61
ENDBRANCH 41 57
ENDBRANCH 40 44
ENDBRANCH 20 40
ENDBRANCH 19 23
ENDBRANCH 1 19
TORSDOF 14
ENDMDL
MODEL 48
REMARK VINA RESULT:      -0.4     73.054     78.952
ROOT
ATOM      1  C1  IDS C   1      24.696  66.272  77.9030  0.00  0.00     0.000 C
ATOM      2  C2  IDS C   1      26.169  65.908  77.8480  0.00  0.00     0.000 C
ATOM      3  C3  IDS C   1      27.035  67.095  78.2520  0.00  0.00     0.000 C
ATOM      4  C4  IDS C   1      26.572  67.688  79.5830  0.00  0.00     0.000 C
ATOM      5  C5  IDS C   1      25.050  67.929  79.5590  0.00  0.00     0.000 C
ATOM      6  O5  IDS C   1      24.361  66.733  79.2110  0.00  0.00     0.000 O
ATOM      7   O  IDS C   1      26.997  68.085  77.2230  0.00  0.00     0.000 O
ATOM      9  HD  IDS C   1      27.163  68.579  77.9150  0.00  0.00     0.000 HD
ATOM      9   O  IDS C   1      26.892  66.769  80.6400  0.00  0.00     0.000 O
ATOM     11  HD  IDS C   1      27.058  67.263  81.3310  0.00  0.00     0.000 HD
ENDROOT
BRANCH 2 11
ATOM     11   O  IDS C   1      26.457  64.801  78.7870  0.00  0.00     0.000 O
ATOM     12   S  IDS C   1      26.860  63.354  78.2410  0.00  0.00     0.000 S
ATOM     13   O  IDS C   1      27.795  62.897  79.2440  0.00  0.00     0.000 OA
ATOM     14   O  IDS C   1      27.455  63.486  76.9330  0.00  0.00     0.000 OA
ATOM     15   O  IDS C   1      25.623  62.613  78.2290  0.00  0.00     0.000 OA
ENDBRANCH 2 11
BRANCH 5 16
ATOM     16   C  IDS C   1      24.497  68.410  80.8880  0.00  0.00     0.000 C
ATOM     17   O  IDS C   1      23.310  68.638  80.9800  0.00  0.00     0.000 OA
ATOM     18   O  IDS C   1      25.222  68.580  81.8300  0.00  0.00     0.000 OA
ENDBRANCH 5 16
BRANCH 1 19
ATOM     19  O4  SGN C   2      24.159  66.955  76.8870  0.00  0.00     0.000 O
BRANCH 19 23
ATOM     20  C1  SGN C   2      20.688  67.636  74.6700  0.00  0.00     0.000 C
ATOM     21  C2  SGN C   2      20.712  68.201  76.0950  0.00  0.00     0.000 C
ATOM     22  C3  SGN C   2      22.150  68.261  76.6020  0.00  0.00     0.000 C
ATOM     23  C4  SGN C   2      22.778  66.874  76.5280  0.00  0.00     0.000 C
ATOM     24  C5  SGN C   2      22.650  66.320  75.1060  0.00  0.00     0.000 C
ATOM     25  O5  SGN C   2      21.270  66.343  74.6970  0.00  0.00     0.000 O
ATOM     26   O  SGN C   2      22.190  68.769  77.9310  0.00  0.00     0.000 O
ATOM     28  HD  SGN C   2      22.133  69.148  78.7070  0.00  0.00     0.000 HD
BRANCH 21 30
ATOM     28   N  SGN C   2      19.802  69.292  75.7230  0.00  0.00     0.000 N
ATOM     30  HD  SGN C   2      19.903  70.057  76.1160  0.00  0.00     0.000 HD
ATOM     30   S  SGN C   2      18.471  69.585  76.5620  0.00  0.00     0.000 S
ATOM     31   O  SGN C   2      18.902  69.730  77.9120  0.00  0.00     0.000 OA
ATOM     32   O  SGN C   2      17.763  70.635  75.9290  0.00  0.00     0.000 OA
ATOM     33   O  SGN C   2      17.616  68.284  76.3860  0.00  0.00     0.000 OA
ENDBRANCH 21 30
BRANCH 24 34
ATOM     34   C  SGN C   2      23.112  64.889  74.9680  0.00  0.00     0.000 C
ATOM     35   O  SGN C   2      24.410  64.875  74.3490  0.00  0.00     0.000 O
ATOM     36   S  SGN C   2      24.881  63.503  73.6810  0.00  0.00     0.000 S
ATOM     37   O  SGN C   2      23.810  63.150  72.7690  0.00  0.00     0.000 OA
ATOM     38   O  SGN C   2      26.126  63.801  73.0160  0.00  0.00     0.000 OA
ATOM     39   O  SGN C   2      25.019  62.601  74.7990  0.00  0.00     0.000 OA
ENDBRANCH 24 34
BRANCH 20 40
ATOM     40  O4  IDS C   3      21.266  68.357  73.7120  0.00  0.00     0.000 O
BRANCH 40 44
ATOM     41  C1  IDS C   3      22.444  70.499  71.1720  0.00  0.00     0.000 C
ATOM     42  C2  IDS C   3      21.375  70.949  72.1640  0.00  0.00     0.000 C
ATOM     43  C3  IDS C   3      20.232  69.938  72.2090  0.00  0.00     0.000 C
ATOM     44  C4  IDS C   3      20.744  68.518  72.3910  0.00  0.00     0.000 C
ATOM     45  C5  IDS C   3      21.849  68.221  71.3560  0.00  0.00     0.000 C
ATOM     46  O5  IDS C   3      22.897  69.185  71.4880  0.00  0.00     0.000 O
ATOM     47   O  IDS C   3      19.471  70.030  71.0080  0.00  0.00     0.000 O
ATOM     49  HD  IDS C   3      19.715  70.322  71.7860  0.00  0.00     0.000 HD
BRANCH 42 49
ATOM     49   O  IDS C   3      21.957  71.068  73.5210  0.00  0.00     0.000 O
ATOM     50   S  IDS C   3      21.700  72.394  74.3820  0.00  0.00     0.000 S
ATOM     51   O  IDS C   3      20.306  72.286  74.7530  0.00  0.00     0.000 OA
ATOM     52   O  IDS C   3      21.970  73.563  73.5610  0.00  0.00     0.000 OA
ATOM     53   O  IDS C   3      22.593  72.310  75.5180  0.00  0.00     0.000 OA
ENDBRANCH 42 49
BRANCH 45 54
ATOM     54   C  IDS C   3      22.446  66.829  71.4940  0.00  0.00     0.000 C
ATOM     55   O  IDS C   3      21.728  65.864  71.4360  0.00  0.00     0.000 OA
ATOM     56   O  IDS C   3      23.640  66.697  71.6780  0.00  0.00     0.000 OA
ENDBRANCH 45 54
BRANCH 41 57
ATOM     57  O4  SGN C   4      21.996  70.804  69.9480  0.00  0.00     0.000 O
BRANCH 57 61
ATOM     58  C1  SGN C   4      23.304  70.521  65.9820  0.00  0.00     0.000 C
ATOM     59  C2  SGN C   4      23.127  69.199  66.7470  0.00  0.00     0.000 C
ATOM     60  C3  SGN C   4      22.273  69.399  68.0070  0.00  0.00     0.000 C
ATOM     61  C4  SGN C   4      22.869  70.511  68.8530  0.00  0.00     0.000 C
ATOM     62  C5  SGN C   4      23.044  71.781  68.0230  0.00  0.00     0.000 C
ATOM     63  O5  SGN C   4      23.832  71.515  66.8470  0.00  0.00     0.000 O
BRANCH 59 66
ATOM     64   N  SGN C   4      22.646  68.257  65.7320  0.00  0.00     0.000 N
ATOM     66  HD  SGN C   4      22.824  68.651  66.4820  0.00  0.00     0.000 HD
ATOM     66   O  SGN C   4      22.706  66.161  64.4920  0.00  0.00     0.000 OA
ATOM     67   O  SGN C   4      24.803  67.310  65.0630  0.00  0.00     0.000 OA
ATOM     68   S  SGN C   4      23.384  66.845  65.5400  0.00  0.00     0.000 S
ATOM     69   O  SGN C   4      23.504  66.227  66.8110  0.00  0.00     0.000 OA
ENDBRANCH 59 66
BRANCH 62 70
ATOM     70   C  SGN C   4      23.756  72.859  68.8010  0.00  0.00     0.000 C
ATOM     71   S  SGN C   4      25.656  73.275  70.4710  0.00  0.00     0.000 S
ATOM     72   O  SGN C   4      26.095  74.401  69.6700  0.00  0.00     0.000 OA
ATOM     73   O  SGN C   4      24.677  73.634  71.4770  0.00  0.00     0.000 OA
ATOM     74   O  SGN C   4      26.742  72.468  70.9770  0.00  0.00     0.000 OA
ATOM     75   O  SGN C   4      24.913  72.315  69.4480  0.00  0.00     0.000 O
ENDBRANCH 62 70
ENDBRANCH 57 61
ENDBRANCH 41 57
ENDBRANCH 40 44
ENDBRANCH 20 40
ENDBRANCH 19 23
ENDBRANCH 1 19
TORSDOF 14
ENDMDL
MODEL 49
REMARK VINA RESULT:      -0.4     95.988    101.500
ROOT
ATOM      1  C1  IDS C   1      67.523  87.888  21.8750  0.00  0.00     0.000 C
ATOM      2  C2  IDS C   1      67.823  88.713  23.1140  0.00  0.00     0.000 C
ATOM      3  C3  IDS C   1      66.733  89.751  23.3490  0.00  0.00     0.000 C
ATOM      4  C4  IDS C   1      65.345  89.109  23.3290  0.00  0.00     0.000 C
ATOM      5  C5  IDS C   1      65.186  88.223  22.0770  0.00  0.00     0.000 C
ATOM      6  O5  IDS C   1      66.243  87.272  22.0020  0.00  0.00     0.000 O
ATOM      7   O  IDS C   1      66.826  90.773  22.3560  0.00  0.00     0.000 O
ATOM      9  HD  IDS C   1      65.983  90.817  22.5520  0.00  0.00     0.000 HD
ATOM      9   O  IDS C   1      65.186  88.303  24.5060  0.00  0.00     0.000 O
ATOM     11  HD  IDS C   1      64.344  88.347  24.7020  0.00  0.00     0.000 HD
ENDROOT
BRANCH 2 11
ATOM     11   O  IDS C   1      67.877  87.839  24.3070  0.00  0.00     0.000 O
ATOM     12   S  IDS C   1      69.200  87.763  25.2000  0.00  0.00     0.000 S
ATOM     13   O  IDS C   1      68.662  87.580  26.5300  0.00  0.00     0.000 OA
ATOM     14   O  IDS C   1      69.946  88.990  25.0570  0.00  0.00     0.000 OA
ATOM     15   O  IDS C   1      69.907  86.608  24.7030  0.00  0.00     0.000 OA
ENDBRANCH 2 11
BRANCH 5 16
ATOM     16   C  IDS C   1      63.874  87.460  22.0450  0.00  0.00     0.000 C
ATOM     17   O  IDS C   1      62.931  87.893  22.6730  0.00  0.00     0.000 OA
ATOM     18   O  IDS C   1      63.772  86.438  21.4250  0.00  0.00     0.000 OA
ENDBRANCH 5 16
BRANCH 1 19
ATOM     19  O4  SGN C   2      67.809  88.397  20.6720  0.00  0.00     0.000 O
BRANCH 19 23
ATOM     20  C1  SGN C   2      69.274  87.553  16.8560  0.00  0.00     0.000 C
ATOM     21  C2  SGN C   2      67.861  87.051  17.1730  0.00  0.00     0.000 C
ATOM     22  C3  SGN C   2      67.312  87.789  18.3910  0.00  0.00     0.000 C
ATOM     23  C4  SGN C   2      68.261  87.608  19.5710  0.00  0.00     0.000 C
ATOM     24  C5  SGN C   2      69.674  88.042  19.1730  0.00  0.00     0.000 C
ATOM     25  O5  SGN C   2      70.090  87.330  17.9940  0.00  0.00     0.000 O
ATOM     26   O  SGN C   2      66.006  87.323  18.7100  0.00  0.00     0.000 O
ATOM     28  HD  SGN C   2      65.194  87.035  18.7940  0.00  0.00     0.000 HD
BRANCH 21 30
ATOM     28   N  SGN C   2      67.591  87.088  15.7300  0.00  0.00     0.000 N
ATOM     30  HD  SGN C   2      66.830  87.407  15.4670  0.00  0.00     0.000 HD
ATOM     30   S  SGN C   2      66.794  85.905  15.0040  0.00  0.00     0.000 S
ATOM     31   O  SGN C   2      65.582  85.763  15.7370  0.00  0.00     0.000 OA
ATOM     32   O  SGN C   2      66.754  86.177  13.6150  0.00  0.00     0.000 OA
ATOM     33   O  SGN C   2      67.714  84.652  15.1990  0.00  0.00     0.000 OA
ENDBRANCH 21 30
BRANCH 24 34
ATOM     34   C  SGN C   2      70.715  87.761  20.2300  0.00  0.00     0.000 C
ATOM     35   O  SGN C   2      71.061  88.994  20.8850  0.00  0.00     0.000 O
ATOM     36   S  SGN C   2      72.443  89.029  21.6830  0.00  0.00     0.000 S
ATOM     37   O  SGN C   2      73.437  88.598  20.7190  0.00  0.00     0.000 OA
ATOM     38   O  SGN C   2      72.613  90.397  22.1090  0.00  0.00     0.000 OA
ATOM     39   O  SGN C   2      72.242  88.102  22.7700  0.00  0.00     0.000 OA
ENDBRANCH 24 34
BRANCH 20 40
ATOM     40  O4  IDS C   3      69.404  88.819  16.4660  0.00  0.00     0.000 O
BRANCH 40 44
ATOM     41  C1  IDS C   3      69.654  92.052  15.0820  0.00  0.00     0.000 C
ATOM     42  C2  IDS C   3      68.726  90.998  14.4850  0.00  0.00     0.000 C
ATOM     43  C3  IDS C   3      69.491  89.704  14.2220  0.00  0.00     0.000 C
ATOM     44  C4  IDS C   3      70.292  89.266  15.4380  0.00  0.00     0.000 C
ATOM     45  C5  IDS C   3      71.142  90.443  15.9600  0.00  0.00     0.000 C
ATOM     46  O5  IDS C   3      70.290  91.552  16.2550  0.00  0.00     0.000 O
ATOM     47   O  IDS C   3      70.362  89.888  13.1080  0.00  0.00     0.000 O
ATOM     49  HD  IDS C   3      69.579  89.769  13.4590  0.00  0.00     0.000 HD
BRANCH 42 49
ATOM     49   O  IDS C   3      67.614  90.709  15.4210  0.00  0.00     0.000 O
ATOM     50   S  IDS C   3      66.114  90.616  14.8670  0.00  0.00     0.000 S
ATOM     51   O  IDS C   3      66.106  89.372  14.1310  0.00  0.00     0.000 OA
ATOM     52   O  IDS C   3      65.839  91.767  14.0220  0.00  0.00     0.000 OA
ATOM     53   O  IDS C   3      65.260  90.585  16.0360  0.00  0.00     0.000 OA
ENDBRANCH 42 49
BRANCH 45 54
ATOM     54   C  IDS C   3      71.946  90.100  17.2040  0.00  0.00     0.000 C
ATOM     55   O  IDS C   3      71.817  90.764  18.1990  0.00  0.00     0.000 OA
ATOM     56   O  IDS C   3      72.728  89.170  17.1830  0.00  0.00     0.000 OA
ENDBRANCH 45 54
BRANCH 41 57
ATOM     57  O4  SGN C   4      70.366  92.565  14.0710  0.00  0.00     0.000 O
BRANCH 57 61
ATOM     58  C1  SGN C   4      73.000  95.749  13.4040  0.00  0.00     0.000 C
ATOM     59  C2  SGN C   4      73.490  94.631  14.3390  0.00  0.00     0.000 C
ATOM     60  C3  SGN C   4      72.640  93.363  14.1790  0.00  0.00     0.000 C
ATOM     61  C4  SGN C   4      71.172  93.709  14.3680  0.00  0.00     0.000 C
ATOM     62  C5  SGN C   4      70.764  94.844  13.4310  0.00  0.00     0.000 C
ATOM     63  O5  SGN C   4      71.617  95.989  13.6180  0.00  0.00     0.000 O
BRANCH 59 66
ATOM     64   N  SGN C   4      74.927  94.538  14.0640  0.00  0.00     0.000 N
ATOM     66  HD  SGN C   4      74.114  94.363  14.3050  0.00  0.00     0.000 HD
ATOM     66   O  SGN C   4      77.276  94.482  14.7070  0.00  0.00     0.000 OA
ATOM     67   O  SGN C   4      75.733  96.029  15.8340  0.00  0.00     0.000 OA
ATOM     68   S  SGN C   4      75.976  94.583  15.2780  0.00  0.00     0.000 S
ATOM     69   O  SGN C   4      75.570  93.638  16.2550  0.00  0.00     0.000 OA
ENDBRANCH 59 66
BRANCH 62 70
ATOM     70   C  SGN C   4      69.349  95.296  13.6920  0.00  0.00     0.000 C
ATOM     71   S  SGN C   4      67.686  95.880  15.5540  0.00  0.00     0.000 S
ATOM     72   O  SGN C   4      67.289  97.059  14.8100  0.00  0.00     0.000 OA
ATOM     73   O  SGN C   4      66.913  94.702  15.2170  0.00  0.00     0.000 OA
ATOM     74   O  SGN C   4      67.811  96.109  16.9750  0.00  0.00     0.000 OA
ATOM     75   O  SGN C   4      69.175  95.587  15.0840  0.00  0.00     0.000 O
ENDBRANCH 62 70
ENDBRANCH 57 61
ENDBRANCH 41 57
ENDBRANCH 40 44
ENDBRANCH 20 40
ENDBRANCH 19 23
ENDBRANCH 1 19
TORSDOF 14
ENDMDL
MODEL 50
REMARK VINA RESULT:      -0.4    112.173    117.413
ROOT
ATOM      1  C1  IDS C   1     107.415  79.153  16.9500  0.00  0.00     0.000 C
ATOM      2  C2  IDS C   1     107.020  78.939  18.4010  0.00  0.00     0.000 C
ATOM      3  C3  IDS C   1     108.124  78.214  19.1600  0.00  0.00     0.000 C
ATOM      4  C4  IDS C   1     109.475  78.900  18.9600  0.00  0.00     0.000 C
ATOM      5  C5  IDS C   1     109.729  79.152  17.4600  0.00  0.00     0.000 C
ATOM      6  O5  IDS C   1     108.645  79.874  16.8850  0.00  0.00     0.000 O
ATOM      7   O  IDS C   1     108.185  76.854  18.7280  0.00  0.00     0.000 O
ATOM      9  HD  IDS C   1     109.003  76.976  18.9860  0.00  0.00     0.000 HD
ATOM      9   O  IDS C   1     109.469  80.155  19.6590  0.00  0.00     0.000 O
ATOM     11  HD  IDS C   1     110.287  80.277  19.9170  0.00  0.00     0.000 HD
ENDROOT
BRANCH 2 11
ATOM     11   O  IDS C   1     106.798  80.242  19.0670  0.00  0.00     0.000 O
ATOM     12   S  IDS C   1     105.382  80.591  19.7210  0.00  0.00     0.000 S
ATOM     13   O  IDS C   1     105.762  81.388  20.8660  0.00  0.00     0.000 OA
ATOM     14   O  IDS C   1     104.709  79.367  20.0850  0.00  0.00     0.000 OA
ATOM     15   O  IDS C   1     104.687  81.340  18.7050  0.00  0.00     0.000 OA
ENDBRANCH 2 11
BRANCH 5 16
ATOM     16   C  IDS C   1     111.001  79.935  17.1890  0.00  0.00     0.000 C
ATOM     17   O  IDS C   1     111.112  80.522  16.1340  0.00  0.00     0.000 OA
ATOM     18   O  IDS C   1     111.890  79.962  17.9950  0.00  0.00     0.000 OA
ENDBRANCH 5 16
BRANCH 1 19
ATOM     19  O4  SGN C   2     107.284  78.142  16.0870  0.00  0.00     0.000 O
BRANCH 19 23
ATOM     20  C1  SGN C   2     106.210  77.077  12.1960  0.00  0.00     0.000 C
ATOM     21  C2  SGN C   2     107.558  77.786  12.3640  0.00  0.00     0.000 C
ATOM     22  C3  SGN C   2     108.001  77.715  13.8230  0.00  0.00     0.000 C
ATOM     23  C4  SGN C   2     106.923  78.319  14.7160  0.00  0.00     0.000 C
ATOM     24  C5  SGN C   2     105.580  77.634  14.4460  0.00  0.00     0.000 C
ATOM     25  O5  SGN C   2     105.266  77.712  13.0440  0.00  0.00     0.000 O
ATOM     26   O  SGN C   2     109.244  78.383  14.0000  0.00  0.00     0.000 O
ATOM     28  HD  SGN C   2     110.030  78.747  14.0090  0.00  0.00     0.000 HD
BRANCH 21 30
ATOM     28   N  SGN C   2     107.996  77.133  11.1240  0.00  0.00     0.000 N
ATOM     30  HD  SGN C   2     108.799  76.808  11.0970  0.00  0.00     0.000 HD
ATOM     30   S  SGN C   2     108.806  77.937  10.0030  0.00  0.00     0.000 S
ATOM     31   O  SGN C   2     109.916  78.515  10.6830  0.00  0.00     0.000 OA
ATOM     32   O  SGN C   2     109.023  77.076   8.9000  0.00  0.00     0.000 OA
ATOM     33   O  SGN C   2     107.804  79.045   9.5300  0.00  0.00     0.000 OA
ENDBRANCH 21 30
BRANCH 24 34
ATOM     34   C  SGN C   2     104.419  78.266  15.1780  0.00  0.00     0.000 C
ATOM     35   O  SGN C   2     104.053  77.425  16.2870  0.00  0.00     0.000 O
ATOM     36   S  SGN C   2     102.595  77.631  16.9020  0.00  0.00     0.000 S
ATOM     37   O  SGN C   2     101.696  77.506  15.7710  0.00  0.00     0.000 OA
ATOM     38   O  SGN C   2     102.434  76.583  17.8810  0.00  0.00     0.000 OA
ATOM     39   O  SGN C   2     102.640  78.956  17.4700  0.00  0.00     0.000 OA
ENDBRANCH 24 34
BRANCH 20 40
ATOM     40  O4  IDS C   3     106.175  75.763  12.4090  0.00  0.00     0.000 O
BRANCH 40 44
ATOM     41  C1  IDS C   3     106.225  72.244  12.5980  0.00  0.00     0.000 C
ATOM     42  C2  IDS C   3     107.161  73.006  11.6650  0.00  0.00     0.000 C
ATOM     43  C3  IDS C   3     106.369  73.979  10.7950  0.00  0.00     0.000 C
ATOM     44  C4  IDS C   3     105.423  74.834  11.6250  0.00  0.00     0.000 C
ATOM     45  C5  IDS C   3     104.578  73.935  12.5510  0.00  0.00     0.000 C
ATOM     46  O5  IDS C   3     105.444  73.150  13.3730  0.00  0.00     0.000 O
ATOM     47   O  IDS C   3     105.631  73.247   9.8190  0.00  0.00     0.000 O
ATOM     49  HD  IDS C   3     106.366  73.577  10.1370  0.00  0.00     0.000 HD
BRANCH 42 49
ATOM     49   O  IDS C   3     108.151  73.775  12.4540  0.00  0.00     0.000 O
ATOM     50   S  IDS C   3     109.699  73.731  12.0440  0.00  0.00     0.000 S
ATOM     51   O  IDS C   3     109.744  74.508  10.8250  0.00  0.00     0.000 OA
ATOM     52   O  IDS C   3     110.106  72.350  11.8410  0.00  0.00     0.000 OA
ATOM     53   O  IDS C   3     110.418  74.354  13.1360  0.00  0.00     0.000 OA
ENDBRANCH 42 49
BRANCH 45 54
ATOM     54   C  IDS C   3     103.630  74.716  13.4470  0.00  0.00     0.000 C
ATOM     55   O  IDS C   3     103.675  74.563  14.6410  0.00  0.00     0.000 OA
ATOM     56   O  IDS C   3     102.821  75.479  12.9560  0.00  0.00     0.000 OA
ENDBRANCH 45 54
BRANCH 41 57
ATOM     57  O4  SGN C   4     105.650  71.277  11.8710  0.00  0.00     0.000 O
BRANCH 57 61
ATOM     58  C1  SGN C   4     103.247  67.906  12.4990  0.00  0.00     0.000 C
ATOM     59  C2  SGN C   4     102.608  69.274  12.7900  0.00  0.00     0.000 C
ATOM     60  C3  SGN C   4     103.414  70.410  12.1450  0.00  0.00     0.000 C
ATOM     61  C4  SGN C   4     104.866  70.317  12.5860  0.00  0.00     0.000 C
ATOM     62  C5  SGN C   4     105.425  68.925  12.2950  0.00  0.00     0.000 C
ATOM     63  O5  SGN C   4     104.607  67.911  12.9080  0.00  0.00     0.000 O
BRANCH 59 66
ATOM     64   N  SGN C   4     101.208  69.121  12.3830  0.00  0.00     0.000 N
ATOM     66  HD  SGN C   4     101.981  69.449  12.5950  0.00  0.00     0.000 HD
ATOM     66   O  SGN C   4      98.802  69.233  12.7470  0.00  0.00     0.000 OA
ATOM     67   O  SGN C   4     100.277  68.427  14.5400  0.00  0.00     0.000 OA
ATOM     68   S  SGN C   4     100.033  69.489  13.4130  0.00  0.00     0.000 S
ATOM     69   O  SGN C   4     100.286  70.784  13.9350  0.00  0.00     0.000 OA
ENDBRANCH 59 66
BRANCH 62 70
ATOM     70   C  SGN C   4     106.821  68.763  12.8430  0.00  0.00     0.000 C
ATOM     71   S  SGN C   4     108.287  69.204  14.8990  0.00  0.00     0.000 S
ATOM     72   O  SGN C   4     108.819  67.860  14.7900  0.00  0.00     0.000 OA
ATOM     73   O  SGN C   4     109.038  70.183  14.1390  0.00  0.00     0.000 OA
ATOM     74   O  SGN C   4     108.013  69.608  16.2590  0.00  0.00     0.000 OA
ATOM     75   O  SGN C   4     106.850  69.126  14.2290  0.00  0.00     0.000 O
ENDBRANCH 62 70
ENDBRANCH 57 61
ENDBRANCH 41 57
ENDBRANCH 40 44
ENDBRANCH 20 40
ENDBRANCH 19 23
ENDBRANCH 1 19
TORSDOF 14
ENDMDL
MODEL 51
REMARK VINA RESULT:      -0.4     82.415     86.466
ROOT
ATOM      1  C1  IDS C   1      32.817  87.452  42.0290  0.00  0.00     0.000 C
ATOM      2  C2  IDS C   1      34.310  87.670  41.8620  0.00  0.00     0.000 C
ATOM      3  C3  IDS C   1      34.811  88.745  42.8200  0.00  0.00     0.000 C
ATOM      4  C4  IDS C   1      34.363  88.458  44.2530  0.00  0.00     0.000 C
ATOM      5  C5  IDS C   1      32.851  88.160  44.2900  0.00  0.00     0.000 C
ATOM      6  O5  IDS C   1      32.527  87.111  43.3840  0.00  0.00     0.000 O
ATOM      7   O  IDS C   1      34.334  90.022  42.3930  0.00  0.00     0.000 O
ATOM      9  HD  IDS C   1      34.427  90.162  43.2430  0.00  0.00     0.000 HD
ATOM      9   O  IDS C   1      35.085  87.320  44.7490  0.00  0.00     0.000 O
ATOM     11  HD  IDS C   1      35.178  87.459  45.5980  0.00  0.00     0.000 HD
ENDROOT
BRANCH 2 11
ATOM     11   O  IDS C   1      35.045  86.422  42.1630  0.00  0.00     0.000 O
ATOM     12   S  IDS C   1      35.961  85.728  41.0520  0.00  0.00     0.000 S
ATOM     13   O  IDS C   1      37.040  85.179  41.8430  0.00  0.00     0.000 OA
ATOM     14   O  IDS C   1      36.406  86.725  40.1080  0.00  0.00     0.000 OA
ATOM     15   O  IDS C   1      35.114  84.723  40.4590  0.00  0.00     0.000 OA
ENDBRANCH 2 11
BRANCH 5 16
ATOM     16   C  IDS C   1      32.353  87.752  45.6650  0.00  0.00     0.000 C
ATOM     17   O  IDS C   1      32.981  88.104  46.6420  0.00  0.00     0.000 OA
ATOM     18   O  IDS C   1      31.366  87.081  45.7890  0.00  0.00     0.000 OA
ENDBRANCH 5 16
BRANCH 1 19
ATOM     19  O4  SGN C   2      31.968  88.305  41.4480  0.00  0.00     0.000 O
BRANCH 19 23
ATOM     20  C1  SGN C   2      28.334  88.675  39.4270  0.00  0.00     0.000 C
ATOM     21  C2  SGN C   2      28.255  88.415  40.9360  0.00  0.00     0.000 C
ATOM     22  C3  SGN C   2      29.598  88.736  41.5860  0.00  0.00     0.000 C
ATOM     23  C4  SGN C   2      30.698  87.915  40.9220  0.00  0.00     0.000 C
ATOM     24  C5  SGN C   2      30.676  88.144  39.4080  0.00  0.00     0.000 C
ATOM     25  O5  SGN C   2      29.364  87.861  38.8910  0.00  0.00     0.000 O
ATOM     26   O  SGN C   2      29.547  88.485  42.9850  0.00  0.00     0.000 O
ATOM     28  HD  SGN C   2      29.413  88.374  43.8340  0.00  0.00     0.000 HD
BRANCH 21 30
ATOM     28   N  SGN C   2      26.945  89.081  40.9490  0.00  0.00     0.000 N
ATOM     30  HD  SGN C   2      26.761  89.602  41.6160  0.00  0.00     0.000 HD
ATOM     30   S  SGN C   2      25.701  88.447  41.7310  0.00  0.00     0.000 S
ATOM     31   O  SGN C   2      26.165  88.226  43.0600  0.00  0.00     0.000 OA
ATOM     32   O  SGN C   2      24.566  89.262  41.5050  0.00  0.00     0.000 OA
ATOM     33   O  SGN C   2      25.443  87.087  40.9970  0.00  0.00     0.000 OA
ENDBRANCH 21 30
BRANCH 24 34
ATOM     34   C  SGN C   2      31.635  87.259  38.6470  0.00  0.00     0.000 C
ATOM     35   O  SGN C   2      32.761  88.047  38.2230  0.00  0.00     0.000 O
ATOM     36   S  SGN C   2      33.646  87.464  37.0290  0.00  0.00     0.000 S
ATOM     37   O  SGN C   2      32.700  87.202  35.9620  0.00  0.00     0.000 OA
ATOM     38   O  SGN C   2      34.599  88.499  36.7090  0.00  0.00     0.000 OA
ATOM     39   O  SGN C   2      34.243  86.275  37.5860  0.00  0.00     0.000 OA
ENDBRANCH 24 34
BRANCH 20 40
ATOM     40  O4  IDS C   3      28.516  89.932  39.0280  0.00  0.00     0.000 O
BRANCH 40 44
ATOM     41  C1  IDS C   3      28.587  93.313  38.0320  0.00  0.00     0.000 C
ATOM     42  C2  IDS C   3      27.505  92.778  38.9650  0.00  0.00     0.000 C
ATOM     43  C3  IDS C   3      26.845  91.541  38.3600  0.00  0.00     0.000 C
ATOM     44  C4  IDS C   3      27.876  90.525  37.8950  0.00  0.00     0.000 C
ATOM     45  C5  IDS C   3      28.930  91.215  37.0040  0.00  0.00     0.000 C
ATOM     46  O5  IDS C   3      29.533  92.291  37.7260  0.00  0.00     0.000 O
ATOM     47   O  IDS C   3      26.021  91.932  37.2650  0.00  0.00     0.000 O
ATOM     49  HD  IDS C   3      26.191  91.863  38.1120  0.00  0.00     0.000 HD
BRANCH 42 49
ATOM     49   O  IDS C   3      28.095  92.409  40.2730  0.00  0.00     0.000 O
ATOM     50   S  IDS C   3      27.395  92.899  41.6270  0.00  0.00     0.000 S
ATOM     51   O  IDS C   3      26.197  92.091  41.6950  0.00  0.00     0.000 OA
ATOM     52   O  IDS C   3      27.104  94.321  41.5330  0.00  0.00     0.000 OA
ATOM     53   O  IDS C   3      28.333  92.606  42.6890  0.00  0.00     0.000 OA
ENDBRANCH 42 49
BRANCH 45 54
ATOM     54   C  IDS C   3      30.025  90.274  36.5260  0.00  0.00     0.000 C
ATOM     55   O  IDS C   3      31.179  90.542  36.7440  0.00  0.00     0.000 OA
ATOM     56   O  IDS C   3      29.733  89.266  35.9130  0.00  0.00     0.000 OA
ENDBRANCH 45 54
BRANCH 41 57
ATOM     57  O4  SGN C   4      27.967  93.997  37.0640  0.00  0.00     0.000 O
BRANCH 57 61
ATOM     58  C1  SGN C   4      28.976  96.550  33.9030  0.00  0.00     0.000 C
ATOM     59  C2  SGN C   4      29.473  95.099  33.8050  0.00  0.00     0.000 C
ATOM     60  C3  SGN C   4      28.713  94.186  34.7770  0.00  0.00     0.000 C
ATOM     61  C4  SGN C   4      28.798  94.759  36.1820  0.00  0.00     0.000 C
ATOM     62  C5  SGN C   4      28.317  96.209  36.1990  0.00  0.00     0.000 C
ATOM     63  O5  SGN C   4      29.055  96.999  35.2470  0.00  0.00     0.000 O
BRANCH 59 66
ATOM     64   N  SGN C   4      29.404  94.796  32.3710  0.00  0.00     0.000 N
ATOM     66  HD  SGN C   4      29.430  94.730  33.2340  0.00  0.00     0.000 HD
ATOM     66   O  SGN C   4      30.319  94.000  30.2590  0.00  0.00     0.000 OA
ATOM     67   O  SGN C   4      31.716  95.340  31.7730  0.00  0.00     0.000 OA
ATOM     68   S  SGN C   4      30.680  94.173  31.6250  0.00  0.00     0.000 S
ATOM     69   O  SGN C   4      31.134  93.056  32.3720  0.00  0.00     0.000 OA
ENDBRANCH 59 66
BRANCH 62 70
ATOM     70   C  SGN C   4      28.516  96.843  37.5530  0.00  0.00     0.000 C
ATOM     71   S  SGN C   4      30.226  97.187  39.4320  0.00  0.00     0.000 S
ATOM     72   O  SGN C   4      29.850  98.586  39.4980  0.00  0.00     0.000 OA
ATOM     73   O  SGN C   4      29.430  96.338  40.2950  0.00  0.00     0.000 OA
ATOM     74   O  SGN C   4      31.649  96.965  39.5470  0.00  0.00     0.000 OA
ATOM     75   O  SGN C   4      29.891  96.748  37.9430  0.00  0.00     0.000 O
ENDBRANCH 62 70
ENDBRANCH 57 61
ENDBRANCH 41 57
ENDBRANCH 40 44
ENDBRANCH 20 40
ENDBRANCH 19 23
ENDBRANCH 1 19
TORSDOF 14
ENDMDL
MODEL 52
REMARK VINA RESULT:      -0.4    120.884    125.460
ROOT
ATOM      1  C1  IDS C   1      83.196 112.030  44.6380  0.00  0.00     0.000 C
ATOM      2  C2  IDS C   1      84.393 112.798  44.1040  0.00  0.00     0.000 C
ATOM      3  C3  IDS C   1      84.393 112.808  42.5810  0.00  0.00     0.000 C
ATOM      4  C4  IDS C   1      83.042 113.267  42.0310  0.00  0.00     0.000 C
ATOM      5  C5  IDS C   1      81.897 112.487  42.7090  0.00  0.00     0.000 C
ATOM      6  O5  IDS C   1      81.991 112.597  44.1260  0.00  0.00     0.000 O
ATOM      7   O  IDS C   1      84.712 111.502  42.0960  0.00  0.00     0.000 O
ATOM      9  HD  IDS C   1      84.244 111.808  41.4350  0.00  0.00     0.000 HD
ATOM      9   O  IDS C   1      82.884 114.670  42.2940  0.00  0.00     0.000 O
ATOM     11  HD  IDS C   1      82.415 114.976  41.6330  0.00  0.00     0.000 HD
ENDROOT
BRANCH 2 11
ATOM     11   O  IDS C   1      84.343 114.204  44.5630  0.00  0.00     0.000 O
ATOM     12   S  IDS C   1      85.508 114.803  45.4790  0.00  0.00     0.000 S
ATOM     13   O  IDS C   1      85.579 116.174  45.0260  0.00  0.00     0.000 OA
ATOM     14   O  IDS C   1      86.727 114.067  45.2430  0.00  0.00     0.000 OA
ATOM     15   O  IDS C   1      85.015 114.668  46.8270  0.00  0.00     0.000 OA
ENDBRANCH 2 11
BRANCH 5 16
ATOM     16   C  IDS C   1      80.518 112.969  42.2980  0.00  0.00     0.000 C
ATOM     17   O  IDS C   1      79.579 112.750  43.0340  0.00  0.00     0.000 OA
ATOM     18   O  IDS C   1      80.352 113.543  41.2580  0.00  0.00     0.000 OA
ENDBRANCH 5 16
BRANCH 1 19
ATOM     19  O4  SGN C   2      83.245 110.695  44.6730  0.00  0.00     0.000 O
BRANCH 19 23
ATOM     20  C1  SGN C   2      82.185 107.286  46.8360  0.00  0.00     0.000 C
ATOM     21  C2  SGN C   2      81.057 107.990  46.0710  0.00  0.00     0.000 C
ATOM     22  C3  SGN C   2      81.652 108.916  45.0130  0.00  0.00     0.000 C
ATOM     23  C4  SGN C   2      82.598 109.910  45.6760  0.00  0.00     0.000 C
ATOM     24  C5  SGN C   2      83.650 109.158  46.4960  0.00  0.00     0.000 C
ATOM     25  O5  SGN C   2      83.002 108.279  47.4330  0.00  0.00     0.000 O
ATOM     26   O  SGN C   2      80.619 109.590  44.3040  0.00  0.00     0.000 O
ATOM     28  HD  SGN C   2      79.933 109.904  43.8780  0.00  0.00     0.000 HD
BRANCH 21 30
ATOM     28   N  SGN C   2      80.356 106.699  46.0440  0.00  0.00     0.000 N
ATOM     30  HD  SGN C   2      79.971 106.463  45.3050  0.00  0.00     0.000 HD
ATOM     30   S  SGN C   2      78.784 106.604  46.3250  0.00  0.00     0.000 S
ATOM     31   O  SGN C   2      78.182 107.521  45.4170  0.00  0.00     0.000 OA
ATOM     32   O  SGN C   2      78.406 105.240  46.3070  0.00  0.00     0.000 OA
ATOM     33   O  SGN C   2      78.631 107.102  47.8030  0.00  0.00     0.000 OA
ENDBRANCH 21 30
BRANCH 24 34
ATOM     34   C  SGN C   2      84.546 110.063  47.3100  0.00  0.00     0.000 C
ATOM     35   O  SGN C   2      85.844 110.115  46.6920  0.00  0.00     0.000 O
ATOM     36   S  SGN C   2      87.060 110.606  47.6020  0.00  0.00     0.000 S
ATOM     37   O  SGN C   2      87.018 109.748  48.7690  0.00  0.00     0.000 OA
ATOM     38   O  SGN C   2      88.245 110.424  46.7980  0.00  0.00     0.000 OA
ATOM     39   O  SGN C   2      86.752 111.988  47.8790  0.00  0.00     0.000 OA
ENDBRANCH 24 34
BRANCH 20 40
ATOM     40  O4  IDS C   3      82.953 106.438  46.1570  0.00  0.00     0.000 O
BRANCH 40 44
ATOM     41  C1  IDS C   3      84.677 103.907  44.4110  0.00  0.00     0.000 C
ATOM     42  C2  IDS C   3      83.156 103.899  44.5310  0.00  0.00     0.000 C
ATOM     43  C3  IDS C   3      82.738 104.039  45.9920  0.00  0.00     0.000 C
ATOM     44  C4  IDS C   3      83.447 105.199  46.6720  0.00  0.00     0.000 C
ATOM     45  C5  IDS C   3      84.968 105.103  46.4250  0.00  0.00     0.000 C
ATOM     46  O5  IDS C   3      85.221 105.075  45.0190  0.00  0.00     0.000 O
ATOM     47   O  IDS C   3      83.020 102.825  46.6840  0.00  0.00     0.000 O
ATOM     49  HD  IDS C   3      82.553 103.305  46.1350  0.00  0.00     0.000 HD
BRANCH 42 49
ATOM     49   O  IDS C   3      82.579 105.026  43.7620  0.00  0.00     0.000 O
ATOM     50   S  IDS C   3      81.332 104.768  42.7900  0.00  0.00     0.000 S
ATOM     51   O  IDS C   3      80.235 104.546  43.7060  0.00  0.00     0.000 OA
ATOM     52   O  IDS C   3      81.604 103.611  41.9530  0.00  0.00     0.000 OA
ATOM     53   O  IDS C   3      81.179 105.978  42.0100  0.00  0.00     0.000 OA
ENDBRANCH 42 49
BRANCH 45 54
ATOM     54   C  IDS C   3      85.752 106.251  47.0410  0.00  0.00     0.000 C
ATOM     55   O  IDS C   3      86.485 106.911  46.3500  0.00  0.00     0.000 OA
ATOM     56   O  IDS C   3      85.649 106.489  48.2280  0.00  0.00     0.000 OA
ENDBRANCH 45 54
BRANCH 41 57
ATOM     57  O4  SGN C   4      85.103 102.684  44.7510  0.00  0.00     0.000 O
BRANCH 57 61
ATOM     58  C1  SGN C   4      88.651 100.464  44.6210  0.00  0.00     0.000 C
ATOM     59  C2  SGN C   4      88.621 101.665  45.5800  0.00  0.00     0.000 C
ATOM     60  C3  SGN C   4      87.182 102.130  45.8430  0.00  0.00     0.000 C
ATOM     61  C4  SGN C   4      86.486 102.398  44.5190  0.00  0.00     0.000 C
ATOM     62  C5  SGN C   4      86.580 101.176  43.6070  0.00  0.00     0.000 C
ATOM     63  O5  SGN C   4      87.953 100.782  43.4260  0.00  0.00     0.000 O
BRANCH 59 66
ATOM     64   N  SGN C   4      89.416 101.234  46.7350  0.00  0.00     0.000 N
ATOM     66  HD  SGN C   4      88.858 101.648  46.2180  0.00  0.00     0.000 HD
ATOM     66   O  SGN C   4      91.212 101.472  48.3630  0.00  0.00     0.000 OA
ATOM     67   O  SGN C   4      91.596 102.088  46.0150  0.00  0.00     0.000 OA
ATOM     68   S  SGN C   4      90.633 102.144  47.2510  0.00  0.00     0.000 S
ATOM     69   O  SGN C   4      90.162 103.473  47.4080  0.00  0.00     0.000 OA
ENDBRANCH 59 66
BRANCH 62 70
ATOM     70   C  SGN C   4      86.015 101.462  42.2380  0.00  0.00     0.000 C
ATOM     71   S  SGN C   4      86.025 103.165  40.3230  0.00  0.00     0.000 S
ATOM     72   O  SGN C   4      86.175 102.078  39.3760  0.00  0.00     0.000 OA
ATOM     73   O  SGN C   4      84.642 103.485  40.6150  0.00  0.00     0.000 OA
ATOM     74   O  SGN C   4      86.836 104.320  40.0110  0.00  0.00     0.000 OA
ATOM     75   O  SGN C   4      86.651 102.615  41.6740  0.00  0.00     0.000 O
ENDBRANCH 62 70
ENDBRANCH 57 61
ENDBRANCH 41 57
ENDBRANCH 40 44
ENDBRANCH 20 40
ENDBRANCH 19 23
ENDBRANCH 1 19
TORSDOF 14
ENDMDL
MODEL 53
REMARK VINA RESULT:      -0.4    122.327    128.139
ROOT
ATOM      1  C1  IDS C   1      88.789 110.060  44.5040  0.00  0.00     0.000 C
ATOM      2  C2  IDS C   1      89.541 108.749  44.3550  0.00  0.00     0.000 C
ATOM      3  C3  IDS C   1      90.743 108.917  43.4330  0.00  0.00     0.000 C
ATOM      4  C4  IDS C   1      91.606 110.104  43.8610  0.00  0.00     0.000 C
ATOM      5  C5  IDS C   1      90.727 111.353  44.0730  0.00  0.00     0.000 C
ATOM      6  O5  IDS C   1      89.672 111.071  44.9870  0.00  0.00     0.000 O
ATOM      7   O  IDS C   1      90.291 109.086  42.0880  0.00  0.00     0.000 O
ATOM      9  HD  IDS C   1      91.049 109.505  42.0560  0.00  0.00     0.000 HD
ATOM      9   O  IDS C   1      92.273 109.777  45.0900  0.00  0.00     0.000 O
ATOM     11  HD  IDS C   1      93.031 110.195  45.0580  0.00  0.00     0.000 HD
ENDROOT
BRANCH 2 11
ATOM     11   O  IDS C   1      90.045 108.297  45.6710  0.00  0.00     0.000 O
ATOM     12   S  IDS C   1      89.442 106.990  46.3670  0.00  0.00     0.000 S
ATOM     13   O  IDS C   1      90.598 106.442  47.0420  0.00  0.00     0.000 OA
ATOM     14   O  IDS C   1      88.910 106.111  45.3550  0.00  0.00     0.000 OA
ATOM     15   O  IDS C   1      88.435 107.492  47.2690  0.00  0.00     0.000 OA
ENDBRANCH 2 11
BRANCH 5 16
ATOM     16   C  IDS C   1      91.498 112.545  44.6110  0.00  0.00     0.000 C
ATOM     17   O  IDS C   1      90.901 113.577  44.8300  0.00  0.00     0.000 OA
ATOM     18   O  IDS C   1      92.681 112.476  44.8030  0.00  0.00     0.000 OA
ENDBRANCH 5 16
BRANCH 1 19
ATOM     19  O4  SGN C   2      87.942 110.435  43.5410  0.00  0.00     0.000 O
BRANCH 19 23
ATOM     20  C1  SGN C   2      84.412 112.493  42.6910  0.00  0.00     0.000 C
ATOM     21  C2  SGN C   2      85.630 113.347  43.0610  0.00  0.00     0.000 C
ATOM     22  C3  SGN C   2      86.904 112.520  42.9130  0.00  0.00     0.000 C
ATOM     23  C4  SGN C   2      86.804 111.266  43.7740  0.00  0.00     0.000 C
ATOM     24  C5  SGN C   2      85.527 110.497  43.4240  0.00  0.00     0.000 C
ATOM     25  O5  SGN C   2      84.385 111.364  43.5480  0.00  0.00     0.000 O
ATOM     26   O  SGN C   2      88.045 113.293  43.2680  0.00  0.00     0.000 O
ATOM     28  HD  SGN C   2      88.688 113.849  43.4330  0.00  0.00     0.000 HD
BRANCH 21 30
ATOM     28   N  SGN C   2      84.939 114.430  42.3490  0.00  0.00     0.000 N
ATOM     30  HD  SGN C   2      85.389 114.884  41.7650  0.00  0.00     0.000 HD
ATOM     30   S  SGN C   2      85.014 115.943  42.8650  0.00  0.00     0.000 S
ATOM     31   O  SGN C   2      86.404 116.230  42.9860  0.00  0.00     0.000 OA
ATOM     32   O  SGN C   2      84.197 116.743  42.0310  0.00  0.00     0.000 OA
ATOM     33   O  SGN C   2      84.329 115.899  44.2730  0.00  0.00     0.000 OA
ENDBRANCH 21 30
BRANCH 24 34
ATOM     34   C  SGN C   2      85.264 109.315  44.3280  0.00  0.00     0.000 C
ATOM     35   O  SGN C   2      85.519 108.102  43.5980  0.00  0.00     0.000 O
ATOM     36   S  SGN C   2      84.870 106.761  44.1710  0.00  0.00     0.000 S
ATOM     37   O  SGN C   2      83.458 107.061  44.3030  0.00  0.00     0.000 OA
ATOM     38   O  SGN C   2      85.151 105.742  43.1880  0.00  0.00     0.000 OA
ATOM     39   O  SGN C   2      85.546 106.557  45.4290  0.00  0.00     0.000 OA
ENDBRANCH 24 34
BRANCH 20 40
ATOM     40  O4  IDS C   3      84.306 112.086  41.4280  0.00  0.00     0.000 O
BRANCH 40 44
ATOM     41  C1  IDS C   3      83.882 111.471  37.9830  0.00  0.00     0.000 C
ATOM     42  C2  IDS C   3      84.049 112.887  38.5250  0.00  0.00     0.000 C
ATOM     43  C3  IDS C   3      83.054 113.143  39.6550  0.00  0.00     0.000 C
ATOM     44  C4  IDS C   3      83.081 112.032  40.6920  0.00  0.00     0.000 C
ATOM     45  C5  IDS C   3      82.953 110.661  39.9960  0.00  0.00     0.000 C
ATOM     46  O5  IDS C   3      83.999 110.515  39.0340  0.00  0.00     0.000 O
ATOM     47   O  IDS C   3      81.742 113.268  39.1110  0.00  0.00     0.000 O
ATOM     49  HD  IDS C   3      82.540 113.567  39.2680  0.00  0.00     0.000 HD
BRANCH 42 49
ATOM     49   O  IDS C   3      85.421 113.073  39.0510  0.00  0.00     0.000 O
ATOM     50   S  IDS C   3      86.261 114.372  38.6350  0.00  0.00     0.000 S
ATOM     51   O  IDS C   3      85.606 115.439  39.3590  0.00  0.00     0.000 OA
ATOM     52   O  IDS C   3      86.192 114.551  37.1940  0.00  0.00     0.000 OA
ATOM     53   O  IDS C   3      87.615 114.132  39.0890  0.00  0.00     0.000 OA
ENDBRANCH 42 49
BRANCH 45 54
ATOM     54   C  IDS C   3      83.011 109.487  40.9620  0.00  0.00     0.000 C
ATOM     55   O  IDS C   3      83.800 108.597  40.7730  0.00  0.00     0.000 OA
ATOM     56   O  IDS C   3      82.251 109.443  41.9100  0.00  0.00     0.000 OA
ENDBRANCH 45 54
BRANCH 41 57
ATOM     57  O4  SGN C   4      82.817 111.485  37.1720  0.00  0.00     0.000 O
BRANCH 57 61
ATOM     58  C1  SGN C   4      80.930 108.927  34.4470  0.00  0.00     0.000 C
ATOM     59  C2  SGN C   4      80.928 108.489  35.9210  0.00  0.00     0.000 C
ATOM     60  C3  SGN C   4      81.266 109.665  36.8490  0.00  0.00     0.000 C
ATOM     61  C4  SGN C   4      82.575 110.299  36.4090  0.00  0.00     0.000 C
ATOM     62  C5  SGN C   4      82.515 110.681  34.9310  0.00  0.00     0.000 C
ATOM     63  O5  SGN C   4      82.170 109.538  34.1250  0.00  0.00     0.000 O
BRANCH 59 66
ATOM     64   N  SGN C   4      79.634 107.822  36.0960  0.00  0.00     0.000 N
ATOM     66  HD  SGN C   4      80.379 108.241  36.2360  0.00  0.00     0.000 HD
ATOM     66   O  SGN C   4      78.203 105.971  36.7740  0.00  0.00     0.000 OA
ATOM     67   O  SGN C   4      80.351 105.520  35.6660  0.00  0.00     0.000 OA
ATOM     68   S  SGN C   4      79.574 106.355  36.7420  0.00  0.00     0.000 S
ATOM     69   O  SGN C   4      80.322 106.366  37.9470  0.00  0.00     0.000 OA
ENDBRANCH 59 66
BRANCH 62 70
ATOM     70   C  SGN C   4      83.846 111.189  34.4350  0.00  0.00     0.000 C
ATOM     71   S  SGN C   4      86.346 110.635  34.3220  0.00  0.00     0.000 S
ATOM     72   O  SGN C   4      86.355 111.025  32.9260  0.00  0.00     0.000 OA
ATOM     73   O  SGN C   4      86.619 111.734  35.2260  0.00  0.00     0.000 OA
ATOM     74   O  SGN C   4      87.125 109.449  34.5950  0.00  0.00     0.000 OA
ATOM     75   O  SGN C   4      84.851 110.183  34.6070  0.00  0.00     0.000 O
ENDBRANCH 62 70
ENDBRANCH 57 61
ENDBRANCH 41 57
ENDBRANCH 40 44
ENDBRANCH 20 40
ENDBRANCH 19 23
ENDBRANCH 1 19
TORSDOF 14
ENDMDL
MODEL 54
REMARK VINA RESULT:      -0.4    128.601    132.571
ROOT
ATOM      1  C1  IDS C   1     106.189  99.259  18.5450  0.00  0.00     0.000 C
ATOM      2  C2  IDS C   1     105.312  98.420  19.4570  0.00  0.00     0.000 C
ATOM      3  C3  IDS C   1     106.060  98.045  20.7310  0.00  0.00     0.000 C
ATOM      4  C4  IDS C   1     106.676  99.278  21.3920  0.00  0.00     0.000 C
ATOM      5  C5  IDS C   1     107.465 100.102  20.3550  0.00  0.00     0.000 C
ATOM      6  O5  IDS C   1     106.638 100.421  19.2400  0.00  0.00     0.000 O
ATOM      7   O  IDS C   1     107.071  97.084  20.4240  0.00  0.00     0.000 O
ATOM      9  HD  IDS C   1     107.414  97.458  21.1260  0.00  0.00     0.000 HD
ATOM      9   O  IDS C   1     105.626 100.086  21.9440  0.00  0.00     0.000 O
ATOM     11  HD  IDS C   1     105.968 100.460  22.6460  0.00  0.00     0.000 HD
ENDROOT
BRANCH 2 11
ATOM     11   O  IDS C   1     104.108  99.185  19.8520  0.00  0.00     0.000 O
ATOM     12   S  IDS C   1     102.662  98.756  19.3230  0.00  0.00     0.000 S
ATOM     13   O  IDS C   1     101.814  99.087  20.4460  0.00  0.00     0.000 OA
ATOM     14   O  IDS C   1     102.664  97.346  19.0140  0.00  0.00     0.000 OA
ATOM     15   O  IDS C   1     102.436  99.590  18.1680  0.00  0.00     0.000 OA
ENDBRANCH 2 11
BRANCH 5 16
ATOM     16   C  IDS C   1     108.011 101.404  20.9120  0.00  0.00     0.000 C
ATOM     17   O  IDS C   1     107.848 101.650  22.0890  0.00  0.00     0.000 OA
ATOM     18   O  IDS C   1     108.580 102.186  20.2030  0.00  0.00     0.000 OA
ENDBRANCH 5 16
BRANCH 1 19
ATOM     19  O4  SGN C   2     107.098  98.648  17.7790  0.00  0.00     0.000 O
BRANCH 19 23
ATOM     20  C1  SGN C   2     109.182  98.780  14.1640  0.00  0.00     0.000 C
ATOM     21  C2  SGN C   2     109.577  99.819  15.2200  0.00  0.00     0.000 C
ATOM     22  C3  SGN C   2     109.065  99.382  16.5900  0.00  0.00     0.000 C
ATOM     23  C4  SGN C   2     107.556  99.173  16.5310  0.00  0.00     0.000 C
ATOM     24  C5  SGN C   2     107.211  98.195  15.4050  0.00  0.00     0.000 C
ATOM     25  O5  SGN C   2     107.769  98.663  14.1640  0.00  0.00     0.000 O
ATOM     26   O  SGN C   2     109.409 100.344  17.5810  0.00  0.00     0.000 O
ATOM     28  HD  SGN C   2     109.716 100.940  18.1290  0.00  0.00     0.000 HD
BRANCH 21 30
ATOM     28   N  SGN C   2     110.914  99.877  14.6160  0.00  0.00     0.000 N
ATOM     30  HD  SGN C   2     111.597  99.931  15.1460  0.00  0.00     0.000 HD
ATOM     30   S  SGN C   2     111.637 101.277  14.3350  0.00  0.00     0.000 S
ATOM     31   O  SGN C   2     111.619 101.967  15.5800  0.00  0.00     0.000 OA
ATOM     32   O  SGN C   2     112.868 101.024  13.6840  0.00  0.00     0.000 OA
ATOM     33   O  SGN C   2     110.704 101.984  13.2920  0.00  0.00     0.000 OA
ENDBRANCH 21 30
BRANCH 24 34
ATOM     34   C  SGN C   2     105.726  98.037  15.1730  0.00  0.00     0.000 C
ATOM     35   O  SGN C   2     105.305  96.763  15.6920  0.00  0.00     0.000 O
ATOM     36   S  SGN C   2     103.919  96.183  15.1510  0.00  0.00     0.000 S
ATOM     37   O  SGN C   2     104.052  96.195  13.7080  0.00  0.00     0.000 OA
ATOM     38   O  SGN C   2     103.810  94.855  15.7070  0.00  0.00     0.000 OA
ATOM     39   O  SGN C   2     102.934  97.107  15.6560  0.00  0.00     0.000 OA
ENDBRANCH 24 34
BRANCH 20 40
ATOM     40  O4  IDS C   3     109.722  97.567  14.2630  0.00  0.00     0.000 O
BRANCH 40 44
ATOM     41  C1  IDS C   3     111.451  94.496  14.3440  0.00  0.00     0.000 C
ATOM     42  C2  IDS C   3     112.193  95.829  14.3210  0.00  0.00     0.000 C
ATOM     43  C3  IDS C   3     111.690  96.697  13.1700  0.00  0.00     0.000 C
ATOM     44  C4  IDS C   3     110.172  96.786  13.1530  0.00  0.00     0.000 C
ATOM     45  C5  IDS C   3     109.562  95.371  13.2300  0.00  0.00     0.000 C
ATOM     46  O5  IDS C   3     110.042  94.708  14.4010  0.00  0.00     0.000 O
ATOM     47   O  IDS C   3     112.159  96.162  11.9340  0.00  0.00     0.000 O
ATOM     49  HD  IDS C   3     112.273  96.592  12.6770  0.00  0.00     0.000 HD
BRANCH 42 49
ATOM     49   O  IDS C   3     111.974  96.556  15.5930  0.00  0.00     0.000 O
ATOM     50   S  IDS C   3     113.214  97.245  16.3370  0.00  0.00     0.000 S
ATOM     51   O  IDS C   3     113.523  98.377  15.4910  0.00  0.00     0.000 OA
ATOM     52   O  IDS C   3     114.313  96.297  16.4230  0.00  0.00     0.000 OA
ATOM     53   O  IDS C   3     112.728  97.634  17.6430  0.00  0.00     0.000 OA
ENDBRANCH 42 49
BRANCH 45 54
ATOM     54   C  IDS C   3     108.041  95.372  13.2580  0.00  0.00     0.000 C
ATOM     55   O  IDS C   3     107.461  94.801  14.1460  0.00  0.00     0.000 OA
ATOM     56   O  IDS C   3     107.418  95.933  12.3780  0.00  0.00     0.000 OA
ENDBRANCH 45 54
BRANCH 41 57
ATOM     57  O4  SGN C   4     111.999  93.726  13.3960  0.00  0.00     0.000 O
BRANCH 57 61
ATOM     58  C1  SGN C   4     111.834  89.741  12.1230  0.00  0.00     0.000 C
ATOM     59  C2  SGN C   4     110.539  90.561  11.9970  0.00  0.00     0.000 C
ATOM     60  C3  SGN C   4     110.825  92.066  12.0970  0.00  0.00     0.000 C
ATOM     61  C4  SGN C   4     111.599  92.352  13.3730  0.00  0.00     0.000 C
ATOM     62  C5  SGN C   4     112.853  91.483  13.4450  0.00  0.00     0.000 C
ATOM     63  O5  SGN C   4     112.513  90.090  13.3200  0.00  0.00     0.000 O
BRANCH 59 66
ATOM     64   N  SGN C   4     109.920  90.038  10.7750  0.00  0.00     0.000 N
ATOM     66  HD  SGN C   4     110.153  90.545  11.4380  0.00  0.00     0.000 HD
ATOM     66   O  SGN C   4     108.062  89.146   9.4760  0.00  0.00     0.000 OA
ATOM     67   O  SGN C   4     108.385  88.430  11.8060  0.00  0.00     0.000 OA
ATOM     68   S  SGN C   4     108.371  89.619  10.7830  0.00  0.00     0.000 S
ATOM     69   O  SGN C   4     107.620  90.690  11.3310  0.00  0.00     0.000 OA
ENDBRANCH 59 66
BRANCH 62 70
ATOM     70   C  SGN C   4     113.568  91.651  14.7620  0.00  0.00     0.000 C
ATOM     71   S  SGN C   4     113.210  91.755  17.2980  0.00  0.00     0.000 S
ATOM     72   O  SGN C   4     114.343  90.868  17.4800  0.00  0.00     0.000 OA
ATOM     73   O  SGN C   4     113.575  93.157  17.2810  0.00  0.00     0.000 OA
ATOM     74   O  SGN C   4     112.096  91.454  18.1680  0.00  0.00     0.000 OA
ATOM     75   O  SGN C   4     112.662  91.418  15.8470  0.00  0.00     0.000 O
ENDBRANCH 62 70
ENDBRANCH 57 61
ENDBRANCH 41 57
ENDBRANCH 40 44
ENDBRANCH 20 40
ENDBRANCH 19 23
ENDBRANCH 1 19
TORSDOF 14
ENDMDL
MODEL 55
REMARK VINA RESULT:      -0.4    149.566    154.065
ROOT
ATOM      1  C1  IDS C   1     115.284  85.130 108.3110  0.00  0.00     0.000 C
ATOM      2  C2  IDS C   1     116.765  85.180 108.6420  0.00  0.00     0.000 C
ATOM      3  C3  IDS C   1     117.488  83.969 108.0650  0.00  0.00     0.000 C
ATOM      4  C4  IDS C   1     117.171  83.791 106.5810  0.00  0.00     0.000 C
ATOM      5  C5  IDS C   1     115.647  83.850 106.3500  0.00  0.00     0.000 C
ATOM      6  O5  IDS C   1     115.107  85.048 106.8970  0.00  0.00     0.000 O
ATOM      7   O  IDS C   1     117.120  82.800 108.8000  0.00  0.00     0.000 O
ATOM      9  HD  IDS C   1     117.321  82.451 108.0330  0.00  0.00     0.000 HD
ATOM      9   O  IDS C   1     117.806  84.843 105.8380  0.00  0.00     0.000 O
ATOM     11  HD  IDS C   1     118.007  84.494 105.0720  0.00  0.00     0.000 HD
ENDROOT
BRANCH 2 11
ATOM     11   O  IDS C   1     117.378  86.392 108.0550  0.00  0.00     0.000 O
ATOM     12   S  IDS C   1     118.018  87.516 108.9930  0.00  0.00     0.000 S
ATOM     13   O  IDS C   1     119.131  87.984 108.1960  0.00  0.00     0.000 OA
ATOM     14   O  IDS C   1     118.430  86.920 110.2410  0.00  0.00     0.000 OA
ATOM     15   O  IDS C   1     116.972  88.496 109.1500  0.00  0.00     0.000 OA
ENDBRANCH 2 11
BRANCH 5 16
ATOM     16   C  IDS C   1     115.260  83.796 104.8840  0.00  0.00     0.000 C
ATOM     17   O  IDS C   1     116.031  83.292 104.0940  0.00  0.00     0.000 OA
ATOM     18   O  IDS C   1     114.219  84.256 104.5050  0.00  0.00     0.000 OA
ENDBRANCH 5 16
BRANCH 1 19
ATOM     19  O4  SGN C   2     114.480  84.355 109.0460  0.00  0.00     0.000 O
BRANCH 19 23
ATOM     20  C1  SGN C   2     110.689  84.002 110.7570  0.00  0.00     0.000 C
ATOM     21  C2  SGN C   2     110.777  83.797 109.2400  0.00  0.00     0.000 C
ATOM     22  C3  SGN C   2     112.225  83.524 108.8400  0.00  0.00     0.000 C
ATOM     23  C4  SGN C   2     113.113  84.669 109.3140  0.00  0.00     0.000 C
ATOM     24  C5  SGN C   2     112.921  84.888 110.8170  0.00  0.00     0.000 C
ATOM     25  O5  SGN C   2     111.526  85.092 111.1060  0.00  0.00     0.000 O
ATOM     26   O  SGN C   2     112.328  83.347 107.4320  0.00  0.00     0.000 O
ATOM     28  HD  SGN C   2     112.293  83.185 106.5820  0.00  0.00     0.000 HD
BRANCH 21 30
ATOM     28   N  SGN C   2     109.553  82.993 109.3500  0.00  0.00     0.000 N
ATOM     30  HD  SGN C   2     109.516  82.248 108.9110  0.00  0.00     0.000 HD
ATOM     30   S  SGN C   2     108.377  83.123 108.2730  0.00  0.00     0.000 S
ATOM     31   O  SGN C   2     109.000  82.917 107.0090  0.00  0.00     0.000 OA
ATOM     32   O  SGN C   2     107.304  82.291 108.6770  0.00  0.00     0.000 OA
ATOM     33   O  SGN C   2     107.888  84.604 108.4200  0.00  0.00     0.000 OA
ENDBRANCH 21 30
BRANCH 24 34
ATOM     34   C  SGN C   2     113.649  86.098 111.3520  0.00  0.00     0.000 C
ATOM     35   O  SGN C   2     114.792  85.660 112.1080  0.00  0.00     0.000 O
ATOM     36   S  SGN C   2     115.422  86.703 113.1390  0.00  0.00     0.000 S
ATOM     37   O  SGN C   2     114.310  87.117 113.9730  0.00  0.00     0.000 OA
ATOM     38   O  SGN C   2     116.439  85.974 113.8590  0.00  0.00     0.000 OA
ATOM     39   O  SGN C   2     115.944  87.752 112.2980  0.00  0.00     0.000 OA
ENDBRANCH 24 34
BRANCH 20 40
ATOM     40  O4  IDS C   3     110.977  82.962 111.5360  0.00  0.00     0.000 O
BRANCH 40 44
ATOM     41  C1  IDS C   3     111.352  80.072 113.5200  0.00  0.00     0.000 C
ATOM     42  C2  IDS C   3     110.348  80.127 112.3720  0.00  0.00     0.000 C
ATOM     43  C3  IDS C   3     109.455  81.358 112.5060  0.00  0.00     0.000 C
ATOM     44  C4  IDS C   3     110.270  82.622 112.7310  0.00  0.00     0.000 C
ATOM     45  C5  IDS C   3     111.272  82.403 113.8850  0.00  0.00     0.000 C
ATOM     46  O5  IDS C   3     112.104  81.281 113.5850  0.00  0.00     0.000 O
ATOM     47   O  IDS C   3     108.545  81.168 113.5860  0.00  0.00     0.000 O
ATOM     49  HD  IDS C   3     108.821  81.017 112.7790  0.00  0.00     0.000 HD
BRANCH 42 49
ATOM     49   O  IDS C   3     111.061  80.197 111.0750  0.00  0.00     0.000 O
ATOM     50   S  IDS C   3     110.604  79.251 109.8660  0.00  0.00     0.000 S
ATOM     51   O  IDS C   3     109.343  79.825 109.4520  0.00  0.00     0.000 OA
ATOM     52   O  IDS C   3     110.464  77.886 110.3470  0.00  0.00     0.000 OA
ATOM     53   O  IDS C   3     111.635  79.368 108.8570  0.00  0.00     0.000 OA
ENDBRANCH 42 49
BRANCH 45 54
ATOM     54   C  IDS C   3     112.157  83.611 114.1510  0.00  0.00     0.000 C
ATOM     55   O  IDS C   3     113.354  83.491 114.1200  0.00  0.00     0.000 OA
ATOM     56   O  IDS C   3     111.654  84.686 114.4110  0.00  0.00     0.000 OA
ENDBRANCH 45 54
BRANCH 41 57
ATOM     57  O4  SGN C   4     110.698  79.602 114.5900  0.00  0.00     0.000 O
BRANCH 57 61
ATOM     58  C1  SGN C   4     111.591  78.242 118.4470  0.00  0.00     0.000 C
ATOM     59  C2  SGN C   4     111.831  79.734 118.1680  0.00  0.00     0.000 C
ATOM     60  C3  SGN C   4     111.098  80.185 116.8970  0.00  0.00     0.000 C
ATOM     61  C4  SGN C   4     111.491  79.284 115.7380  0.00  0.00     0.000 C
ATOM     62  C5  SGN C   4     111.254  77.817 116.0960  0.00  0.00     0.000 C
ATOM     63  O5  SGN C   4     111.950  77.472 117.3090  0.00  0.00     0.000 O
BRANCH 59 66
ATOM     64   N  SGN C   4     111.482  80.410 119.4220  0.00  0.00     0.000 N
ATOM     66  HD  SGN C   4     111.652  80.236 118.5910  0.00  0.00     0.000 HD
ATOM     66   O  SGN C   4     111.928  81.889 121.3050  0.00  0.00     0.000 OA
ATOM     67   O  SGN C   4     113.697  80.402 120.4670  0.00  0.00     0.000 OA
ATOM     68   S  SGN C   4     112.538  81.398 120.1160  0.00  0.00     0.000 S
ATOM     69   O  SGN C   4     113.000  82.317 119.1390  0.00  0.00     0.000 OA
ENDBRANCH 59 66
BRANCH 62 70
ATOM     70   C  SGN C   4     111.760  76.894 115.0150  0.00  0.00     0.000 C
ATOM     71   S  SGN C   4     113.748  76.441 113.4610  0.00  0.00     0.000 S
ATOM     72   O  SGN C   4     113.667  75.032 113.7930  0.00  0.00     0.000 OA
ATOM     73   O  SGN C   4     112.929  76.811 112.3250  0.00  0.00     0.000 OA
ATOM     74   O  SGN C   4     115.101  76.942 113.3920  0.00  0.00     0.000 OA
ATOM     75   O  SGN C   4     113.130  77.189 114.7190  0.00  0.00     0.000 O
ENDBRANCH 62 70
ENDBRANCH 57 61
ENDBRANCH 41 57
ENDBRANCH 40 44
ENDBRANCH 20 40
ENDBRANCH 19 23
ENDBRANCH 1 19
TORSDOF 14
ENDMDL
MODEL 56
REMARK VINA RESULT:      -0.4     72.614     77.272
ROOT
ATOM      1  C1  IDS C   1       5.096  66.991  68.9470  0.00  0.00     0.000 C
ATOM      2  C2  IDS C   1       3.937  67.922  68.6360  0.00  0.00     0.000 C
ATOM      3  C3  IDS C   1       4.423  69.358  68.4810  0.00  0.00     0.000 C
ATOM      4  C4  IDS C   1       5.592  69.442  67.4990  0.00  0.00     0.000 C
ATOM      5  C5  IDS C   1       6.664  68.392  67.8540  0.00  0.00     0.000 C
ATOM      6  O5  IDS C   1       6.085  67.093  67.9240  0.00  0.00     0.000 O
ATOM      7   O  IDS C   1       4.805  69.871  69.7590  0.00  0.00     0.000 O
ATOM      9  HD  IDS C   1       5.305  70.349  69.2380  0.00  0.00     0.000 HD
ATOM      9   O  IDS C   1       5.104  69.195  66.1710  0.00  0.00     0.000 O
ATOM     11  HD  IDS C   1       5.605  69.673  65.6510  0.00  0.00     0.000 HD
ENDROOT
BRANCH 2 11
ATOM     11   O  IDS C   1       3.291  67.526  67.3640  0.00  0.00     0.000 O
ATOM     12   S  IDS C   1       1.728  67.201  67.3120  0.00  0.00     0.000 S
ATOM     13   O  IDS C   1       1.358  67.683  66.0000  0.00  0.00     0.000 OA
ATOM     14   O  IDS C   1       1.057  67.903  68.3800  0.00  0.00     0.000 OA
ATOM     15   O  IDS C   1       1.651  65.767  67.4400  0.00  0.00     0.000 OA
ENDBRANCH 2 11
BRANCH 5 16
ATOM     16   C  IDS C   1       7.804  68.338  66.8540  0.00  0.00     0.000 C
ATOM     17   O  IDS C   1       8.485  67.336  66.7980  0.00  0.00     0.000 OA
ATOM     18   O  IDS C   1       8.042  69.273  66.1400  0.00  0.00     0.000 OA
ENDBRANCH 5 16
BRANCH 1 19
ATOM     19  O4  SGN C   2       5.556  66.924  70.1990  0.00  0.00     0.000 O
BRANCH 19 23
ATOM     20  C1  SGN C   2       6.959  64.386  73.2010  0.00  0.00     0.000 C
ATOM     21  C2  SGN C   2       7.918  64.665  72.0370  0.00  0.00     0.000 C
ATOM     22  C3  SGN C   2       7.459  65.907  71.2780  0.00  0.00     0.000 C
ATOM     23  C4  SGN C   2       6.023  65.716  70.8020  0.00  0.00     0.000 C
ATOM     24  C5  SGN C   2       5.126  65.355  71.9890  0.00  0.00     0.000 C
ATOM     25  O5  SGN C   2       5.657  64.203  72.6700  0.00  0.00     0.000 O
ATOM     26   O  SGN C   2       8.329  66.172  70.1840  0.00  0.00     0.000 O
ATOM     28  HD  SGN C   2       8.941  66.301  69.5850  0.00  0.00     0.000 HD
BRANCH 21 30
ATOM     28   N  SGN C   2       8.982  64.288  72.9770  0.00  0.00     0.000 N
ATOM     30  HD  SGN C   2       9.668  64.813  73.0440  0.00  0.00     0.000 HD
ATOM     30   S  SGN C   2      10.268  63.471  72.4890  0.00  0.00     0.000 S
ATOM     31   O  SGN C   2      10.801  64.221  71.4010  0.00  0.00     0.000 OA
ATOM     32   O  SGN C   2      11.076  63.189  73.6170  0.00  0.00     0.000 OA
ATOM     33   O  SGN C   2       9.683  62.105  71.9910  0.00  0.00     0.000 OA
ENDBRANCH 21 30
BRANCH 24 34
ATOM     34   C  SGN C   2       3.711  65.001  71.5950  0.00  0.00     0.000 C
ATOM     35   O  SGN C   2       2.848  66.109  71.9090  0.00  0.00     0.000 O
ATOM     36   S  SGN C   2       1.286  65.800  72.0250  0.00  0.00     0.000 S
ATOM     37   O  SGN C   2       1.194  64.716  72.9820  0.00  0.00     0.000 OA
ATOM     38   O  SGN C   2       0.681  67.026  72.4860  0.00  0.00     0.000 OA
ATOM     39   O  SGN C   2       0.904  65.432  70.6840  0.00  0.00     0.000 OA
ENDBRANCH 24 34
BRANCH 20 40
ATOM     40  O4  IDS C   3       6.909  65.281  74.1850  0.00  0.00     0.000 O
BRANCH 40 44
ATOM     41  C1  IDS C   3       7.115  67.476  76.9360  0.00  0.00     0.000 C
ATOM     42  C2  IDS C   3       8.352  66.780  76.3760  0.00  0.00     0.000 C
ATOM     43  C3  IDS C   3       8.116  65.275  76.2750  0.00  0.00     0.000 C
ATOM     44  C4  IDS C   3       6.805  64.957  75.5730  0.00  0.00     0.000 C
ATOM     45  C5  IDS C   3       5.657  65.766  76.2130  0.00  0.00     0.000 C
ATOM     46  O5  IDS C   3       5.966  67.160  76.1540  0.00  0.00     0.000 O
ATOM     47   O  IDS C   3       8.117  64.708  77.5830  0.00  0.00     0.000 O
ATOM     49  HD  IDS C   3       8.516  65.049  76.8940  0.00  0.00     0.000 HD
BRANCH 42 49
ATOM     49   O  IDS C   3       8.662  67.302  75.0240  0.00  0.00     0.000 O
ATOM     50   S  IDS C   3      10.174  67.672  74.6440  0.00  0.00     0.000 S
ATOM     51   O  IDS C   3      10.814  66.381  74.5290  0.00  0.00     0.000 OA
ATOM     52   O  IDS C   3      10.751  68.490  75.6980  0.00  0.00     0.000 OA
ATOM     53   O  IDS C   3      10.105  68.381  73.3830  0.00  0.00     0.000 OA
ENDBRANCH 42 49
BRANCH 45 54
ATOM     54   C  IDS C   3       4.312  65.535  75.5420  0.00  0.00     0.000 C
ATOM     55   O  IDS C   3       3.689  66.473  75.1160  0.00  0.00     0.000 OA
ATOM     56   O  IDS C   3       3.863  64.409  75.4530  0.00  0.00     0.000 OA
ENDBRANCH 45 54
BRANCH 41 57
ATOM     57  O4  SGN C   4       7.126  67.287  78.2610  0.00  0.00     0.000 O
BRANCH 57 61
ATOM     58  C1  SGN C   4       5.104  68.715  81.6380  0.00  0.00     0.000 C
ATOM     59  C2  SGN C   4       4.267  67.940  80.6070  0.00  0.00     0.000 C
ATOM     60  C3  SGN C   4       5.164  67.135  79.6570  0.00  0.00     0.000 C
ATOM     61  C4  SGN C   4       6.194  68.057  79.0270  0.00  0.00     0.000 C
ATOM     62  C5  SGN C   4       6.967  68.814  80.1070  0.00  0.00     0.000 C
ATOM     63  O5  SGN C   4       6.062  69.525  80.9730  0.00  0.00     0.000 O
BRANCH 59 66
ATOM     64   N  SGN C   4       3.287  67.210  81.4170  0.00  0.00     0.000 N
ATOM     66  HD  SGN C   4       3.813  67.463  80.7770  0.00  0.00     0.000 HD
ATOM     66   O  SGN C   4       1.031  66.510  82.0140  0.00  0.00     0.000 OA
ATOM     67   O  SGN C   4       1.453  68.830  81.3170  0.00  0.00     0.000 OA
ATOM     68   S  SGN C   4       1.726  67.307  81.0610  0.00  0.00     0.000 S
ATOM     69   O  SGN C   4       1.564  67.036  79.6780  0.00  0.00     0.000 OA
ENDBRANCH 59 66
BRANCH 62 70
ATOM     70   C  SGN C   4       7.902  69.834  79.5070  0.00  0.00     0.000 C
ATOM     71   S  SGN C   4       8.035  71.767  77.8290  0.00  0.00     0.000 S
ATOM     72   O  SGN C   4       8.777  72.543  78.8030  0.00  0.00     0.000 OA
ATOM     73   O  SGN C   4       8.880  70.955  76.9780  0.00  0.00     0.000 OA
ATOM     74   O  SGN C   4       7.049  72.538  77.1060  0.00  0.00     0.000 OA
ATOM     75   O  SGN C   4       7.167  70.756  78.6930  0.00  0.00     0.000 O
ENDBRANCH 62 70
ENDBRANCH 57 61
ENDBRANCH 41 57
ENDBRANCH 40 44
ENDBRANCH 20 40
ENDBRANCH 19 23
ENDBRANCH 1 19
TORSDOF 14
ENDMDL
MODEL 57
REMARK VINA RESULT:      -0.4    144.526    149.965
ROOT
ATOM      1  C1  IDS C   1     118.042 117.685   6.2090  0.00  0.00     0.000 C
ATOM      2  C2  IDS C   1     119.342 116.921   6.0290  0.00  0.00     0.000 C
ATOM      3  C3  IDS C   1     119.444 116.353   4.6190  0.00  0.00     0.000 C
ATOM      4  C4  IDS C   1     119.186 117.433   3.5680  0.00  0.00     0.000 C
ATOM      5  C5  IDS C   1     117.893 118.204   3.9020  0.00  0.00     0.000 C
ATOM      6  O5  IDS C   1     117.948 118.717   5.2290  0.00  0.00     0.000 O
ATOM      7   O  IDS C   1     118.515 115.278   4.4700  0.00  0.00     0.000 O
ATOM      9  HD  IDS C   1     118.580 115.548   3.6500  0.00  0.00     0.000 HD
ATOM      9   O  IDS C   1     120.295 118.345   3.5550  0.00  0.00     0.000 O
ATOM     11  HD  IDS C   1     120.360 118.615   2.7340  0.00  0.00     0.000 HD
ENDROOT
BRANCH 2 11
ATOM     11   O  IDS C   1     120.497 117.824   6.2350  0.00  0.00     0.000 O
ATOM     12   S  IDS C   1     121.560 117.534   7.3920  0.00  0.00     0.000 S
ATOM     13   O  IDS C   1     122.795 117.994   6.7950  0.00  0.00     0.000 OA
ATOM     14   O  IDS C   1     121.569 116.123   7.6910  0.00  0.00     0.000 OA
ATOM     15   O  IDS C   1     121.121 118.346   8.5000  0.00  0.00     0.000 OA
ENDBRANCH 2 11
BRANCH 5 16
ATOM     16   C  IDS C   1     117.631 119.370   2.9660  0.00  0.00     0.000 C
ATOM     17   O  IDS C   1     118.194 119.394   1.8920  0.00  0.00     0.000 OA
ATOM     18   O  IDS C   1     116.895 120.262   3.2850  0.00  0.00     0.000 OA
ENDBRANCH 5 16
BRANCH 1 19
ATOM     19  O4  SGN C   2     116.917 117.003   6.4490  0.00  0.00     0.000 O
BRANCH 19 23
ATOM     20  C1  SGN C   2     113.346 116.946   8.6090  0.00  0.00     0.000 C
ATOM     21  C2  SGN C   2     113.408 117.906   7.4150  0.00  0.00     0.000 C
ATOM     22  C3  SGN C   2     114.559 117.508   6.4940  0.00  0.00     0.000 C
ATOM     23  C4  SGN C   2     115.864 117.492   7.2820  0.00  0.00     0.000 C
ATOM     24  C5  SGN C   2     115.719 116.588   8.5090  0.00  0.00     0.000 C
ATOM     25  O5  SGN C   2     114.587 117.007   9.2930  0.00  0.00     0.000 O
ATOM     26   O  SGN C   2     114.642 118.399   5.3880  0.00  0.00     0.000 O
ATOM     28  HD  SGN C   2     114.580 118.941   4.7150  0.00  0.00     0.000 HD
BRANCH 21 30
ATOM     28   N  SGN C   2     111.946 117.810   7.3220  0.00  0.00     0.000 N
ATOM     30  HD  SGN C   2     111.593 117.749   6.5330  0.00  0.00     0.000 HD
ATOM     30   S  SGN C   2     111.043 119.111   7.0930  0.00  0.00     0.000 S
ATOM     31   O  SGN C   2     111.579 119.743   5.9350  0.00  0.00     0.000 OA
ATOM     32   O  SGN C   2     109.681 118.723   7.1210  0.00  0.00     0.000 OA
ATOM     33   O  SGN C   2     111.298 119.980   8.3710  0.00  0.00     0.000 OA
ENDBRANCH 21 30
BRANCH 24 34
ATOM     34   C  SGN C   2     116.913 116.623   9.4330  0.00  0.00     0.000 C
ATOM     35   O  SGN C   2     117.637 115.386   9.3080  0.00  0.00     0.000 O
ATOM     36   S  SGN C   2     118.632 115.004  10.4970  0.00  0.00     0.000 S
ATOM     37   O  SGN C   2     117.818 115.070  11.6950  0.00  0.00     0.000 OA
ATOM     38   O  SGN C   2     119.105 113.675  10.1980  0.00  0.00     0.000 OA
ATOM     39   O  SGN C   2     119.658 116.016  10.4310  0.00  0.00     0.000 OA
ENDBRANCH 24 34
BRANCH 20 40
ATOM     40  O4  IDS C   3     113.046 115.673   8.3610  0.00  0.00     0.000 O
BRANCH 40 44
ATOM     41  C1  IDS C   3     111.836 112.433   7.6770  0.00  0.00     0.000 C
ATOM     42  C2  IDS C   3     111.057 113.679   7.2660  0.00  0.00     0.000 C
ATOM     43  C3  IDS C   3     110.879 114.613   8.4610  0.00  0.00     0.000 C
ATOM     44  C4  IDS C   3     112.196 114.865   9.1790  0.00  0.00     0.000 C
ATOM     45  C5  IDS C   3     112.893 113.522   9.4850  0.00  0.00     0.000 C
ATOM     46  O5  IDS C   3     113.081 112.795   8.2700  0.00  0.00     0.000 O
ATOM     47   O  IDS C   3     109.933 114.049   9.3660  0.00  0.00     0.000 O
ATOM     49  HD  IDS C   3     110.145 114.453   8.6300  0.00  0.00     0.000 HD
BRANCH 42 49
ATOM     49   O  IDS C   3     111.784 114.407   6.2000  0.00  0.00     0.000 O
ATOM     50   S  IDS C   3     110.995 114.900   4.8960  0.00  0.00     0.000 S
ATOM     51   O  IDS C   3     110.185 115.991   5.3890  0.00  0.00     0.000 OA
ATOM     52   O  IDS C   3     110.196 113.804   4.3710  0.00  0.00     0.000 OA
ATOM     53   O  IDS C   3     112.009 115.331   3.9570  0.00  0.00     0.000 OA
ENDBRANCH 42 49
BRANCH 45 54
ATOM     54   C  IDS C   3     114.241 113.686  10.1700  0.00  0.00     0.000 C
ATOM     55   O  IDS C   3     115.227 113.212   9.6670  0.00  0.00     0.000 OA
ATOM     56   O  IDS C   3     114.316 114.279  11.2280  0.00  0.00     0.000 OA
ENDBRANCH 45 54
BRANCH 41 57
ATOM     57  O4  SGN C   4     110.976 111.623   8.3060  0.00  0.00     0.000 O
BRANCH 57 61
ATOM     58  C1  SGN C   4     110.874 107.698   9.7600  0.00  0.00     0.000 C
ATOM     59  C2  SGN C   4     111.853 108.665  10.4460  0.00  0.00     0.000 C
ATOM     60  C3  SGN C   4     111.512 110.125  10.1200  0.00  0.00     0.000 C
ATOM     61  C4  SGN C   4     111.442 110.305   8.6130  0.00  0.00     0.000 C
ATOM     62  C5  SGN C   4     110.475 109.296   7.9960  0.00  0.00     0.000 C
ATOM     63  O5  SGN C   4     110.842 107.952   8.3630  0.00  0.00     0.000 O
BRANCH 59 66
ATOM     64   N  SGN C   4     111.838 108.237  11.8490  0.00  0.00     0.000 N
ATOM     66  HD  SGN C   4     111.918 108.702  11.1220  0.00  0.00     0.000 HD
ATOM     66   O  SGN C   4     112.892 107.575  13.9430  0.00  0.00     0.000 OA
ATOM     67   O  SGN C   4     113.804 106.776  11.8050  0.00  0.00     0.000 OA
ATOM     68   S  SGN C   4     113.222 107.982  12.6200  0.00  0.00     0.000 S
ATOM     69   O  SGN C   4     114.056 109.114  12.4280  0.00  0.00     0.000 OA
ENDBRANCH 59 66
BRANCH 62 70
ATOM     70   C  SGN C   4     110.489 109.364   6.4890  0.00  0.00     0.000 C
ATOM     71   S  SGN C   4     112.037 109.441   4.4480  0.00  0.00     0.000 S
ATOM     72   O  SGN C   4     111.205 108.449   3.7970  0.00  0.00     0.000 OA
ATOM     73   O  SGN C   4     111.614 110.803   4.1920  0.00  0.00     0.000 OA
ATOM     74   O  SGN C   4     113.453 109.225   4.2530  0.00  0.00     0.000 OA
ATOM     75   O  SGN C   4     111.825 109.192   6.0010  0.00  0.00     0.000 O
ENDBRANCH 62 70
ENDBRANCH 57 61
ENDBRANCH 41 57
ENDBRANCH 40 44
ENDBRANCH 20 40
ENDBRANCH 19 23
ENDBRANCH 1 19
TORSDOF 14
ENDMDL
MODEL 58
REMARK VINA RESULT:      -0.4     83.459     88.015
ROOT
ATOM      1  C1  IDS C   1      38.644  92.816  32.3610  0.00  0.00     0.000 C
ATOM      2  C2  IDS C   1      37.822  91.879  33.2270  0.00  0.00     0.000 C
ATOM      3  C3  IDS C   1      38.492  90.514  33.3340  0.00  0.00     0.000 C
ATOM      4  C4  IDS C   1      39.957  90.650  33.7500  0.00  0.00     0.000 C
ATOM      5  C5  IDS C   1      40.669  91.694  32.8650  0.00  0.00     0.000 C
ATOM      6  O5  IDS C   1      39.964  92.931  32.8900  0.00  0.00     0.000 O
ATOM      7   O  IDS C   1      38.389  89.834  32.0820  0.00  0.00     0.000 O
ATOM      9  HD  IDS C   1      39.107  89.471  32.4020  0.00  0.00     0.000 HD
ATOM      9   O  IDS C   1      40.016  91.069  35.1220  0.00  0.00     0.000 O
ATOM     11  HD  IDS C   1      40.734  90.707  35.4420  0.00  0.00     0.000 HD
ENDROOT
BRANCH 2 11
ATOM     11   O  IDS C   1      37.697  92.427  34.5960  0.00  0.00     0.000 O
ATOM     12   S  IDS C   1      36.259  92.732  35.2220  0.00  0.00     0.000 S
ATOM     13   O  IDS C   1      36.461  92.420  36.6200  0.00  0.00     0.000 OA
ATOM     14   O  IDS C   1      35.274  91.886  34.5930  0.00  0.00     0.000 OA
ATOM     15   O  IDS C   1      36.044  94.135  34.9720  0.00  0.00     0.000 OA
ENDBRANCH 2 11
BRANCH 5 16
ATOM     16   C  IDS C   1      42.099  91.968  33.2930  0.00  0.00     0.000 C
ATOM     17   O  IDS C   1      42.695  91.117  33.9190  0.00  0.00     0.000 OA
ATOM     18   O  IDS C   1      42.629  93.012  33.0340  0.00  0.00     0.000 OA
ENDBRANCH 5 16
BRANCH 1 19
ATOM     19  O4  SGN C   2      38.554  92.717  31.0310  0.00  0.00     0.000 O
BRANCH 19 23
ATOM     20  C1  SGN C   2      38.427  94.837  27.4370  0.00  0.00     0.000 C
ATOM     21  C2  SGN C   2      39.788  94.759  28.1380  0.00  0.00     0.000 C
ATOM     22  C3  SGN C   2      39.778  93.626  29.1610  0.00  0.00     0.000 C
ATOM     23  C4  SGN C   2      38.638  93.839  30.1500  0.00  0.00     0.000 C
ATOM     24  C5  SGN C   2      37.316  93.997  29.3940  0.00  0.00     0.000 C
ATOM     25  O5  SGN C   2      37.432  95.054  28.4240  0.00  0.00     0.000 O
ATOM     26   O  SGN C   2      41.030  93.549  29.8330  0.00  0.00     0.000 O
ATOM     28  HD  SGN C   2      41.838  93.526  30.1430  0.00  0.00     0.000 HD
BRANCH 21 30
ATOM     28   N  SGN C   2      40.333  95.062  26.8080  0.00  0.00     0.000 N
ATOM     30  HD  SGN C   2      40.955  94.546  26.4970  0.00  0.00     0.000 HD
ATOM     30   S  SGN C   2      41.654  95.947  26.6350  0.00  0.00     0.000 S
ATOM     31   O  SGN C   2      42.639  95.316  27.4470  0.00  0.00     0.000 OA
ATOM     32   O  SGN C   2      41.892  96.134  25.2520  0.00  0.00     0.000 OA
ATOM     33   O  SGN C   2      41.257  97.343  27.2240  0.00  0.00     0.000 OA
ENDBRANCH 21 30
BRANCH 24 34
ATOM     34   C  SGN C   2      36.149  94.360  30.2820  0.00  0.00     0.000 C
ATOM     35   O  SGN C   2      35.336  93.190  30.4870  0.00  0.00     0.000 O
ATOM     36   S  SGN C   2      33.836  93.427  30.9790  0.00  0.00     0.000 S
ATOM     37   O  SGN C   2      33.273  94.351  30.0140  0.00  0.00     0.000 OA
ATOM     38   O  SGN C   2      33.211  92.126  30.9600  0.00  0.00     0.000 OA
ATOM     39   O  SGN C   2      33.986  93.981  32.3020  0.00  0.00     0.000 OA
ENDBRANCH 24 34
BRANCH 20 40
ATOM     40  O4  IDS C   3      38.068  93.808  26.6730  0.00  0.00     0.000 O
BRANCH 40 44
ATOM     41  C1  IDS C   3      37.342  91.244  24.3650  0.00  0.00     0.000 C
ATOM     42  C2  IDS C   3      38.637  92.048  24.2830  0.00  0.00     0.000 C
ATOM     43  C3  IDS C   3      38.334  93.545  24.2890  0.00  0.00     0.000 C
ATOM     44  C4  IDS C   3      37.391  93.924  25.4200  0.00  0.00     0.000 C
ATOM     45  C5  IDS C   3      36.156  92.999  25.4070  0.00  0.00     0.000 C
ATOM     46  O5  IDS C   3      36.580  91.638  25.5020  0.00  0.00     0.000 O
ATOM     47   O  IDS C   3      37.764  93.916  23.0360  0.00  0.00     0.000 O
ATOM     49  HD  IDS C   3      38.432  93.690  23.5380  0.00  0.00     0.000 HD
BRANCH 42 49
ATOM     49   O  IDS C   3      39.504  91.737  25.4430  0.00  0.00     0.000 O
ATOM     50   S  IDS C   3      41.071  91.488  25.2190  0.00  0.00     0.000 S
ATOM     51   O  IDS C   3      41.578  92.809  24.9190  0.00  0.00     0.000 OA
ATOM     52   O  IDS C   3      41.259  90.555  24.1210  0.00  0.00     0.000 OA
ATOM     53   O  IDS C   3      41.573  90.963  26.4710  0.00  0.00     0.000 OA
ENDBRANCH 42 49
BRANCH 45 54
ATOM     54   C  IDS C   3      35.177  93.286  26.5350  0.00  0.00     0.000 C
ATOM     55   O  IDS C   3      34.725  94.395  26.6650  0.00  0.00     0.000 OA
ATOM     56   O  IDS C   3      34.868  92.402  27.3090  0.00  0.00     0.000 OA
ENDBRANCH 45 54
BRANCH 41 57
ATOM     57  O4  SGN C   4      36.807  91.239  23.1380  0.00  0.00     0.000 O
BRANCH 57 61
ATOM     58  C1  SGN C   4      33.738  89.274  21.0760  0.00  0.00     0.000 C
ATOM     59  C2  SGN C   4      33.322  90.136  22.2790  0.00  0.00     0.000 C
ATOM     60  C3  SGN C   4      34.442  91.105  22.6810  0.00  0.00     0.000 C
ATOM     61  C4  SGN C   4      35.727  90.328  22.9120  0.00  0.00     0.000 C
ATOM     62  C5  SGN C   4      36.063  89.474  21.6910  0.00  0.00     0.000 C
ATOM     63  O5  SGN C   4      34.961  88.609  21.3580  0.00  0.00     0.000 O
BRANCH 59 66
ATOM     64   N  SGN C   4      32.030  90.710  21.8870  0.00  0.00     0.000 N
ATOM     66  HD  SGN C   4      32.792  90.562  22.2720  0.00  0.00     0.000 HD
ATOM     66   O  SGN C   4      29.667  91.201  22.2150  0.00  0.00     0.000 OA
ATOM     67   O  SGN C   4      30.565  89.005  22.8600  0.00  0.00     0.000 OA
ATOM     68   S  SGN C   4      30.763  90.561  22.8590  0.00  0.00     0.000 S
ATOM     69   O  SGN C   4      31.145  90.978  24.1600  0.00  0.00     0.000 OA
ENDBRANCH 59 66
BRANCH 62 70
ATOM     70   C  SGN C   4      37.260  88.591  21.9450  0.00  0.00     0.000 C
ATOM     71   S  SGN C   4      38.277  86.936  23.6170  0.00  0.00     0.000 S
ATOM     72   O  SGN C   4      38.613  86.053  22.5170  0.00  0.00     0.000 OA
ATOM     73   O  SGN C   4      39.318  87.898  23.9180  0.00  0.00     0.000 OA
ATOM     74   O  SGN C   4      37.770  86.244  24.7790  0.00  0.00     0.000 OA
ATOM     75   O  SGN C   4      37.032  87.773  23.0990  0.00  0.00     0.000 O
ENDBRANCH 62 70
ENDBRANCH 57 61
ENDBRANCH 41 57
ENDBRANCH 40 44
ENDBRANCH 20 40
ENDBRANCH 19 23
ENDBRANCH 1 19
TORSDOF 14
ENDMDL
MODEL 59
REMARK VINA RESULT:      -0.4     92.540     96.726
ROOT
ATOM      1  C1  IDS C   1      80.879  54.449  65.5030  0.00  0.00     0.000 C
ATOM      2  C2  IDS C   1      80.637  55.939  65.6680  0.00  0.00     0.000 C
ATOM      3  C3  IDS C   1      81.898  56.731  65.3470  0.00  0.00     0.000 C
ATOM      4  C4  IDS C   1      82.475  56.324  63.9910  0.00  0.00     0.000 C
ATOM      5  C5  IDS C   1      82.589  54.789  63.8980  0.00  0.00     0.000 C
ATOM      6  O5  IDS C   1      81.334  54.178  64.1780  0.00  0.00     0.000 O
ATOM      7   O  IDS C   1      82.863  56.530  66.3810  0.00  0.00     0.000 O
ATOM      9  HD  IDS C   1      83.382  56.707  65.7100  0.00  0.00     0.000 HD
ATOM      9   O  IDS C   1      81.605  56.800  62.9520  0.00  0.00     0.000 O
ATOM     11  HD  IDS C   1      82.123  56.977  62.2810  0.00  0.00     0.000 HD
ENDROOT
BRANCH 2 11
ATOM     11   O  IDS C   1      79.574  56.390  64.7420  0.00  0.00     0.000 O
ATOM     12   S  IDS C   1      78.250  57.089  65.3000  0.00  0.00     0.000 S
ATOM     13   O  IDS C   1      77.947  58.047  64.2600  0.00  0.00     0.000 OA
ATOM     14   O  IDS C   1      78.537  57.709  66.5720  0.00  0.00     0.000 OA
ATOM     15   O  IDS C   1      77.288  56.020  65.3950  0.00  0.00     0.000 OA
ENDBRANCH 2 11
BRANCH 5 16
ATOM     16   C  IDS C   1      83.047  54.303  62.5350  0.00  0.00     0.000 C
ATOM     17   O  IDS C   1      82.807  53.159  62.2120  0.00  0.00     0.000 OA
ATOM     18   O  IDS C   1      83.650  55.029  61.7940  0.00  0.00     0.000 OA
ENDBRANCH 5 16
BRANCH 1 19
ATOM     19  O4  SGN C   2      81.496  53.780  66.4810  0.00  0.00     0.000 O
BRANCH 19 23
ATOM     20  C1  SGN C   2      81.594  50.222  68.6620  0.00  0.00     0.000 C
ATOM     21  C2  SGN C   2      82.133  50.161  67.2280  0.00  0.00     0.000 C
ATOM     22  C3  SGN C   2      82.436  51.572  66.7300  0.00  0.00     0.000 C
ATOM     23  C4  SGN C   2      81.181  52.431  66.8320  0.00  0.00     0.000 C
ATOM     24  C5  SGN C   2      80.635  52.388  68.2620  0.00  0.00     0.000 C
ATOM     25  O5  SGN C   2      80.423  51.022  68.6620  0.00  0.00     0.000 O
ATOM     26   O  SGN C   2      82.922  51.535  65.3940  0.00  0.00     0.000 O
ATOM     28  HD  SGN C   2      83.274  51.420  64.6110  0.00  0.00     0.000 HD
BRANCH 21 30
ATOM     28   N  SGN C   2      83.025  49.054  67.6000  0.00  0.00     0.000 N
ATOM     30  HD  SGN C   2      83.808  49.024  67.2320  0.00  0.00     0.000 HD
ATOM     30   S  SGN C   2      83.097  47.718  66.7230  0.00  0.00     0.000 S
ATOM     31   O  SGN C   2      83.366  48.153  65.3940  0.00  0.00     0.000 OA
ATOM     32   O  SGN C   2      83.976  46.809  67.3610  0.00  0.00     0.000 OA
ATOM     33   O  SGN C   2      81.656  47.113  66.8320  0.00  0.00     0.000 OA
ENDBRANCH 21 30
BRANCH 24 34
ATOM     34   C  SGN C   2      79.309  53.092  68.4270  0.00  0.00     0.000 C
ATOM     35   O  SGN C   2      79.521  54.329  69.1300  0.00  0.00     0.000 O
ATOM     36   S  SGN C   2      78.247  54.996  69.8240  0.00  0.00     0.000 S
ATOM     37   O  SGN C   2      77.695  53.951  70.6630  0.00  0.00     0.000 OA
ATOM     38   O  SGN C   2      78.756  56.123  70.5690  0.00  0.00     0.000 OA
ATOM     39   O  SGN C   2      77.401  55.366  68.7160  0.00  0.00     0.000 OA
ENDBRANCH 24 34
BRANCH 20 40
ATOM     40  O4  IDS C   3      82.420  50.656  69.6120  0.00  0.00     0.000 O
BRANCH 40 44
ATOM     41  C1  IDS C   3      84.786  51.402  72.1170  0.00  0.00     0.000 C
ATOM     42  C2  IDS C   3      85.017  50.279  71.1100  0.00  0.00     0.000 C
ATOM     43  C3  IDS C   3      83.814  49.339  71.0780  0.00  0.00     0.000 C
ATOM     44  C4  IDS C   3      82.507  50.102  70.9270  0.00  0.00     0.000 C
ATOM     45  C5  IDS C   3      82.435  51.233  71.9740  0.00  0.00     0.000 C
ATOM     46  O5  IDS C   3      83.570  52.089  71.8300  0.00  0.00     0.000 O
ATOM     47   O  IDS C   3      83.788  48.563  72.2730  0.00  0.00     0.000 O
ATOM     49  HD  IDS C   3      84.105  48.757  71.4910  0.00  0.00     0.000 HD
BRANCH 42 49
ATOM     49   O  IDS C   3      85.214  50.842  69.7540  0.00  0.00     0.000 O
ATOM     50   S  IDS C   3      86.465  50.368  68.8730  0.00  0.00     0.000 S
ATOM     51   O  IDS C   3      86.115  49.017  68.4960  0.00  0.00     0.000 OA
ATOM     52   O  IDS C   3      87.674  50.428  69.6780  0.00  0.00     0.000 OA
ATOM     53   O  IDS C   3      86.520  51.271  67.7420  0.00  0.00     0.000 OA
ENDBRANCH 42 49
BRANCH 45 54
ATOM     54   C  IDS C   3      81.173  52.074  71.8670  0.00  0.00     0.000 C
ATOM     55   O  IDS C   3      81.260  53.268  71.7410  0.00  0.00     0.000 OA
ATOM     56   O  IDS C   3      80.082  51.540  71.9250  0.00  0.00     0.000 OA
ENDBRANCH 45 54
BRANCH 41 57
ATOM     57  O4  SGN C   4      85.027  50.895  73.3320  0.00  0.00     0.000 O
BRANCH 57 61
ATOM     58  C1  SGN C   4      85.412  52.265  77.2690  0.00  0.00     0.000 C
ATOM     59  C2  SGN C   4      84.031  52.425  76.6140  0.00  0.00     0.000 C
ATOM     60  C3  SGN C   4      83.902  51.539  75.3670  0.00  0.00     0.000 C
ATOM     61  C4  SGN C   4      85.056  51.823  74.4210  0.00  0.00     0.000 C
ATOM     62  C5  SGN C   4      86.393  51.674  75.1450  0.00  0.00     0.000 C
ATOM     63  O5  SGN C   4      86.433  52.514  76.3140  0.00  0.00     0.000 O
BRANCH 59 66
ATOM     64   N  SGN C   4      83.093  52.218  77.7220  0.00  0.00     0.000 N
ATOM     66  HD  SGN C   4      83.453  52.269  76.9360  0.00  0.00     0.000 HD
ATOM     66   O  SGN C   4      81.181  52.815  79.1080  0.00  0.00     0.000 OA
ATOM     67   O  SGN C   4      82.727  54.562  78.3320  0.00  0.00     0.000 OA
ATOM     68   S  SGN C   4      81.910  53.272  77.9740  0.00  0.00     0.000 S
ATOM     69   O  SGN C   4      81.230  53.483  76.7470  0.00  0.00     0.000 OA
ENDBRANCH 59 66
BRANCH 62 70
ATOM     70   C  SGN C   4      87.549  52.081  74.2650  0.00  0.00     0.000 C
ATOM     71   S  SGN C   4      88.411  53.947  72.7340  0.00  0.00     0.000 S
ATOM     72   O  SGN C   4      89.709  53.850  73.3710  0.00  0.00     0.000 OA
ATOM     73   O  SGN C   4      88.263  53.064  71.5940  0.00  0.00     0.000 OA
ATOM     74   O  SGN C   4      87.994  55.306  72.4760  0.00  0.00     0.000 OA
ATOM     75   O  SGN C   4      87.383  53.436  73.8310  0.00  0.00     0.000 O
ENDBRANCH 62 70
ENDBRANCH 57 61
ENDBRANCH 41 57
ENDBRANCH 40 44
ENDBRANCH 20 40
ENDBRANCH 19 23
ENDBRANCH 1 19
TORSDOF 14
ENDMDL
MODEL 60
REMARK VINA RESULT:      -0.4     96.575    103.461
ROOT
ATOM      1  C1  IDS C   1      72.914  76.258  77.8780  0.00  0.00     0.000 C
ATOM      2  C2  IDS C   1      72.380  77.425  77.0660  0.00  0.00     0.000 C
ATOM      3  C3  IDS C   1      70.865  77.339  76.9270  0.00  0.00     0.000 C
ATOM      4  C4  IDS C   1      70.195  77.148  78.2880  0.00  0.00     0.000 C
ATOM      5  C5  IDS C   1      70.877  76.002  79.0620  0.00  0.00     0.000 C
ATOM      6  O5  IDS C   1      72.280  76.229  79.1560  0.00  0.00     0.000 O
ATOM      7   O  IDS C   1      70.528  76.263  76.0480  0.00  0.00     0.000 O
ATOM      9  HD  IDS C   1      69.814  76.300  76.5380  0.00  0.00     0.000 HD
ATOM      9   O  IDS C   1      70.312  78.366  79.0400  0.00  0.00     0.000 O
ATOM     11  HD  IDS C   1      69.598  78.402  79.5290  0.00  0.00     0.000 HD
ENDROOT
BRANCH 2 11
ATOM     11   O  IDS C   1      72.697  78.704  77.7390  0.00  0.00     0.000 O
ATOM     12   S  IDS C   1      73.701  79.750  77.0680  0.00  0.00     0.000 S
ATOM     13   O  IDS C   1      73.138  81.019  77.4740  0.00  0.00     0.000 OA
ATOM     14   O  IDS C   1      73.698  79.565  75.6360  0.00  0.00     0.000 OA
ATOM     15   O  IDS C   1      74.978  79.469  77.6740  0.00  0.00     0.000 OA
ENDBRANCH 2 11
BRANCH 5 16
ATOM     16   C  IDS C   1      70.342  75.828  80.4710  0.00  0.00     0.000 C
ATOM     17   O  IDS C   1      69.454  76.561  80.8540  0.00  0.00     0.000 OA
ATOM     18   O  IDS C   1      70.796  74.992  81.2030  0.00  0.00     0.000 OA
ENDBRANCH 5 16
BRANCH 1 19
ATOM     19  O4  SGN C   2      73.080  75.074  77.2810  0.00  0.00     0.000 O
BRANCH 19 23
ATOM     20  C1  SGN C   2      75.280  71.527  77.2490  0.00  0.00     0.000 C
ATOM     21  C2  SGN C   2      74.319  71.726  78.4270  0.00  0.00     0.000 C
ATOM     22  C3  SGN C   2      73.301  72.811  78.0840  0.00  0.00     0.000 C
ATOM     23  C4  SGN C   2      74.028  74.099  77.7170  0.00  0.00     0.000 C
ATOM     24  C5  SGN C   2      75.036  73.826  76.5980  0.00  0.00     0.000 C
ATOM     25  O5  SGN C   2      75.924  72.764  76.9890  0.00  0.00     0.000 O
ATOM     26   O  SGN C   2      72.409  73.019  79.1730  0.00  0.00     0.000 O
ATOM     28  HD  SGN C   2      71.870  73.036  79.8510  0.00  0.00     0.000 HD
BRANCH 21 30
ATOM     28   N  SGN C   2      74.048  70.292  78.5970  0.00  0.00     0.000 N
ATOM     30  HD  SGN C   2      73.284  70.061  78.9320  0.00  0.00     0.000 HD
ATOM     30   S  SGN C   2      74.332  69.554  79.9880  0.00  0.00     0.000 S
ATOM     31   O  SGN C   2      73.633  70.316  80.9680  0.00  0.00     0.000 OA
ATOM     32   O  SGN C   2      74.050  68.176  79.8300  0.00  0.00     0.000 OA
ATOM     33   O  SGN C   2      75.881  69.686  80.1790  0.00  0.00     0.000 OA
ENDBRANCH 21 30
BRANCH 24 34
ATOM     34   C  SGN C   2      75.911  75.012  76.2670  0.00  0.00     0.000 C
ATOM     35   O  SGN C   2      75.391  75.664  75.0940  0.00  0.00     0.000 O
ATOM     36   S  SGN C   2      76.386  76.624  74.2960  0.00  0.00     0.000 S
ATOM     37   O  SGN C   2      77.551  75.804  74.0240  0.00  0.00     0.000 OA
ATOM     38   O  SGN C   2      75.673  77.021  73.1060  0.00  0.00     0.000 OA
ATOM     39   O  SGN C   2      76.635  77.708  75.2140  0.00  0.00     0.000 OA
ENDBRANCH 24 34
BRANCH 20 40
ATOM     40  O4  IDS C   3      74.773  71.051  76.1140  0.00  0.00     0.000 O
BRANCH 40 44
ATOM     41  C1  IDS C   3      73.509  69.534  73.1940  0.00  0.00     0.000 C
ATOM     42  C2  IDS C   3      73.313  68.904  74.5690  0.00  0.00     0.000 C
ATOM     43  C3  IDS C   3      74.651  68.784  75.2950  0.00  0.00     0.000 C
ATOM     44  C4  IDS C   3      75.422  70.094  75.2740  0.00  0.00     0.000 C
ATOM     45  C5  IDS C   3      75.498  70.636  73.8310  0.00  0.00     0.000 C
ATOM     46  O5  IDS C   3      74.176  70.789  73.3090  0.00  0.00     0.000 O
ATOM     47   O  IDS C   3      75.427  67.754  74.6880  0.00  0.00     0.000 O
ATOM     49  HD  IDS C   3      74.778  68.031  75.1890  0.00  0.00     0.000 HD
BRANCH 42 49
ATOM     49   O  IDS C   3      72.403  69.739  75.3880  0.00  0.00     0.000 O
ATOM     50   S  IDS C   3      71.251  69.042  76.2560  0.00  0.00     0.000 S
ATOM     51   O  IDS C   3      71.982  68.403  77.3280  0.00  0.00     0.000 OA
ATOM     52   O  IDS C   3      70.531  68.090  75.4260  0.00  0.00     0.000 OA
ATOM     53   O  IDS C   3      70.397  70.115  76.7180  0.00  0.00     0.000 OA
ENDBRANCH 42 49
BRANCH 45 54
ATOM     54   C  IDS C   3      76.222  71.969  73.7250  0.00  0.00     0.000 C
ATOM     55   O  IDS C   3      75.671  72.908  73.2100  0.00  0.00     0.000 OA
ATOM     56   O  IDS C   3      77.357  72.078  74.1460  0.00  0.00     0.000 OA
ENDBRANCH 45 54
BRANCH 41 57
ATOM     57  O4  SGN C   4      73.972  68.574  72.3850  0.00  0.00     0.000 O
BRANCH 57 61
ATOM     58  C1  SGN C   4      74.659  67.993  68.2960  0.00  0.00     0.000 C
ATOM     59  C2  SGN C   4      75.495  69.082  68.9900  0.00  0.00     0.000 C
ATOM     60  C3  SGN C   4      75.458  68.920  70.5150  0.00  0.00     0.000 C
ATOM     61  C4  SGN C   4      74.014  68.876  70.9870  0.00  0.00     0.000 C
ATOM     62  C5  SGN C   4      73.238  67.795  70.2360  0.00  0.00     0.000 C
ATOM     63  O5  SGN C   4      73.337  67.995  68.8130  0.00  0.00     0.000 O
BRANCH 59 66
ATOM     64   N  SGN C   4      76.797  69.014  68.3180  0.00  0.00     0.000 N
ATOM     66  HD  SGN C   4      76.164  69.155  68.8920  0.00  0.00     0.000 HD
ATOM     66   O  SGN C   4      78.699  69.974  67.1380  0.00  0.00     0.000 OA
ATOM     67   O  SGN C   4      76.422  70.744  66.6240  0.00  0.00     0.000 OA
ATOM     68   S  SGN C   4      77.461  70.351  67.7310  0.00  0.00     0.000 S
ATOM     69   O  SGN C   4      77.449  71.341  68.7470  0.00  0.00     0.000 OA
ENDBRANCH 59 66
BRANCH 62 70
ATOM     70   C  SGN C   4      71.772  67.819  70.5880  0.00  0.00     0.000 C
ATOM     71   S  SGN C   4      69.753  69.371  70.8830  0.00  0.00     0.000 S
ATOM     72   O  SGN C   4      68.942  68.435  70.1290  0.00  0.00     0.000 OA
ATOM     73   O  SGN C   4      69.768  69.101  72.3060  0.00  0.00     0.000 OA
ATOM     74   O  SGN C   4      69.494  70.754  70.5550  0.00  0.00     0.000 OA
ATOM     75   O  SGN C   4      71.235  69.129  70.3670  0.00  0.00     0.000 O
ENDBRANCH 62 70
ENDBRANCH 57 61
ENDBRANCH 41 57
ENDBRANCH 40 44
ENDBRANCH 20 40
ENDBRANCH 19 23
ENDBRANCH 1 19
TORSDOF 14
ENDMDL
MODEL 61
REMARK VINA RESULT:      -0.4     77.511     81.402
ROOT
ATOM      1  C1  IDS C   1      58.092  72.010  23.9900  0.00  0.00     0.000 C
ATOM      2  C2  IDS C   1      59.183  71.635  23.0020  0.00  0.00     0.000 C
ATOM      3  C3  IDS C   1      60.384  72.561  23.1460  0.00  0.00     0.000 C
ATOM      4  C4  IDS C   1      60.843  72.649  24.6020  0.00  0.00     0.000 C
ATOM      5  C5  IDS C   1      59.641  72.940  25.5230  0.00  0.00     0.000 C
ATOM      6  O5  IDS C   1      58.612  71.978  25.3190  0.00  0.00     0.000 O
ATOM      7   O  IDS C   1      60.048  73.858  22.6490  0.00  0.00     0.000 O
ATOM      9  HD  IDS C   1      60.663  74.061  23.2240  0.00  0.00     0.000 HD
ATOM      9   O  IDS C   1      61.440  71.398  24.9790  0.00  0.00     0.000 O
ATOM     11  HD  IDS C   1      62.055  71.602  25.5540  0.00  0.00     0.000 HD
ENDROOT
BRANCH 2 11
ATOM     11   O  IDS C   1      59.648  70.253  23.2560  0.00  0.00     0.000 O
ATOM     12   S  IDS C   1      59.553  69.140  22.1120  0.00  0.00     0.000 S
ATOM     13   O  IDS C   1      60.731  68.340  22.3650  0.00  0.00     0.000 OA
ATOM     14   O  IDS C   1      59.573  69.780  20.8190  0.00  0.00     0.000 OA
ATOM     15   O  IDS C   1      58.319  68.446  22.3830  0.00  0.00     0.000 OA
ENDBRANCH 2 11
BRANCH 5 16
ATOM     16   C  IDS C   1      59.999  72.927  26.9980  0.00  0.00     0.000 C
ATOM     17   O  IDS C   1      61.148  73.141  27.3220  0.00  0.00     0.000 OA
ATOM     18   O  IDS C   1      59.168  72.694  27.8310  0.00  0.00     0.000 OA
ENDBRANCH 5 16
BRANCH 1 19
ATOM     19  O4  SGN C   2      57.282  73.033  23.7040  0.00  0.00     0.000 O
BRANCH 19 23
ATOM     20  C1  SGN C   2      53.361  74.453  23.8870  0.00  0.00     0.000 C
ATOM     21  C2  SGN C   2      54.139  74.421  25.2080  0.00  0.00     0.000 C
ATOM     22  C3  SGN C   2      55.635  74.307  24.9220  0.00  0.00     0.000 C
ATOM     23  C4  SGN C   2      55.902  73.071  24.0710  0.00  0.00     0.000 C
ATOM     24  C5  SGN C   2      55.036  73.111  22.8090  0.00  0.00     0.000 C
ATOM     25  O5  SGN C   2      53.652  73.264  23.1720  0.00  0.00     0.000 O
ATOM     26   O  SGN C   2      56.372  74.260  26.1380  0.00  0.00     0.000 O
ATOM     28  HD  SGN C   2      56.748  74.306  26.9170  0.00  0.00     0.000 HD
BRANCH 21 30
ATOM     28   N  SGN C   2      53.144  75.408  25.6460  0.00  0.00     0.000 N
ATOM     30  HD  SGN C   2      53.432  76.151  25.9850  0.00  0.00     0.000 HD
ATOM     30   S  SGN C   2      52.651  75.470  27.1670  0.00  0.00     0.000 S
ATOM     31   O  SGN C   2      53.840  75.577  27.9440  0.00  0.00     0.000 OA
ATOM     32   O  SGN C   2      51.645  76.460  27.2730  0.00  0.00     0.000 OA
ATOM     33   O  SGN C   2      51.957  74.084  27.3980  0.00  0.00     0.000 OA
ENDBRANCH 21 30
BRANCH 24 34
ATOM     34   C  SGN C   2      55.122  71.855  21.9740  0.00  0.00     0.000 C
ATOM     35   O  SGN C   2      55.941  72.116  20.8210  0.00  0.00     0.000 O
ATOM     36   S  SGN C   2      55.791  71.118  19.5840  0.00  0.00     0.000 S
ATOM     37   O  SGN C   2      54.373  71.111  19.2850  0.00  0.00     0.000 OA
ATOM     38   O  SGN C   2      56.597  71.683  18.5280  0.00  0.00     0.000 OA
ATOM     39   O  SGN C   2      56.290  69.862  20.0870  0.00  0.00     0.000 OA
ENDBRANCH 24 34
BRANCH 20 40
ATOM     40  O4  IDS C   3      53.548  75.501  23.0890  0.00  0.00     0.000 O
BRANCH 40 44
ATOM     41  C1  IDS C   3      53.765  78.482  21.2200  0.00  0.00     0.000 C
ATOM     42  C2  IDS C   3      53.335  78.488  22.6840  0.00  0.00     0.000 C
ATOM     43  C3  IDS C   3      52.198  77.494  22.9080  0.00  0.00     0.000 C
ATOM     44  C4  IDS C   3      52.519  76.129  22.3190  0.00  0.00     0.000 C
ATOM     45  C5  IDS C   3      52.984  76.284  20.8560  0.00  0.00     0.000 C
ATOM     46  O5  IDS C   3      54.110  77.163  20.8050  0.00  0.00     0.000 O
ATOM     47   O  IDS C   3      51.002  78.005  22.3240  0.00  0.00     0.000 O
ATOM     49  HD  IDS C   3      51.609  77.991  22.9410  0.00  0.00     0.000 HD
BRANCH 42 49
ATOM     49   O  IDS C   3      54.475  78.107  23.5510  0.00  0.00     0.000 O
ATOM     50   S  IDS C   3      54.765  78.937  24.8900  0.00  0.00     0.000 S
ATOM     51   O  IDS C   3      53.685  78.542  25.7670  0.00  0.00     0.000 OA
ATOM     52   O  IDS C   3      54.749  80.359  24.5900  0.00  0.00     0.000 OA
ATOM     53   O  IDS C   3      56.061  78.494  25.3590  0.00  0.00     0.000 OA
ENDBRANCH 42 49
BRANCH 45 54
ATOM     54   C  IDS C   3      53.365  74.965  20.2030  0.00  0.00     0.000 C
ATOM     55   O  IDS C   3      54.443  74.847  19.6800  0.00  0.00     0.000 OA
ATOM     56   O  IDS C   3      52.575  74.041  20.1950  0.00  0.00     0.000 OA
ENDBRANCH 45 54
BRANCH 41 57
ATOM     57  O4  SGN C   4      52.866  79.210  20.5450  0.00  0.00     0.000 O
BRANCH 57 61
ATOM     58  C1  SGN C   4      52.406  80.839  16.7160  0.00  0.00     0.000 C
ATOM     59  C2  SGN C   4      52.393  79.306  16.8210  0.00  0.00     0.000 C
ATOM     60  C3  SGN C   4      52.156  78.850  18.2670  0.00  0.00     0.000 C
ATOM     61  C4  SGN C   4      53.176  79.509  19.1810  0.00  0.00     0.000 C
ATOM     62  C5  SGN C   4      53.153  81.027  19.0030  0.00  0.00     0.000 C
ATOM     63  O5  SGN C   4      53.358  81.379  17.6210  0.00  0.00     0.000 O
BRANCH 59 66
ATOM     64   N  SGN C   4      51.431  78.884  15.7980  0.00  0.00     0.000 N
ATOM     66  HD  SGN C   4      51.943  78.913  16.4960  0.00  0.00     0.000 HD
ATOM     66   O  SGN C   4      50.724  77.576  13.8680  0.00  0.00     0.000 OA
ATOM     67   O  SGN C   4      53.001  78.498  13.9580  0.00  0.00     0.000 OA
ATOM     68   S  SGN C   4      51.845  77.766  14.7240  0.00  0.00     0.000 S
ATOM     69   O  SGN C   4      52.385  76.655  15.4210  0.00  0.00     0.000 OA
ENDBRANCH 59 66
BRANCH 62 70
ATOM     70   C  SGN C   4      54.247  81.694  19.7980  0.00  0.00     0.000 C
ATOM     71   S  SGN C   4      56.734  81.546  20.4040  0.00  0.00     0.000 S
ATOM     72   O  SGN C   4      56.862  82.970  20.1650  0.00  0.00     0.000 OA
ATOM     73   O  SGN C   4      56.370  81.224  21.7690  0.00  0.00     0.000 OA
ATOM     74   O  SGN C   4      57.845  80.772  19.9000  0.00  0.00     0.000 OA
ATOM     75   O  SGN C   4      55.512  81.092  19.4980  0.00  0.00     0.000 O
ENDBRANCH 62 70
ENDBRANCH 57 61
ENDBRANCH 41 57
ENDBRANCH 40 44
ENDBRANCH 20 40
ENDBRANCH 19 23
ENDBRANCH 1 19
TORSDOF 14
ENDMDL
MODEL 62
REMARK VINA RESULT:      -0.4     97.373    103.370
ROOT
ATOM      1  C1  IDS C   1      91.237  62.558  39.8600  0.00  0.00     0.000 C
ATOM      2  C2  IDS C   1      91.345  62.501  41.3740  0.00  0.00     0.000 C
ATOM      3  C3  IDS C   1      90.530  63.617  42.0160  0.00  0.00     0.000 C
ATOM      4  C4  IDS C   1      89.100  63.637  41.4780  0.00  0.00     0.000 C
ATOM      5  C5  IDS C   1      89.110  63.598  39.9360  0.00  0.00     0.000 C
ATOM      6  O5  IDS C   1      89.867  62.486  39.4700  0.00  0.00     0.000 O
ATOM      7   O  IDS C   1      91.171  64.872  41.7790  0.00  0.00     0.000 O
ATOM      9  HD  IDS C   1      90.348  65.126  41.8650  0.00  0.00     0.000 HD
ATOM      9   O  IDS C   1      88.397  62.489  41.9780  0.00  0.00     0.000 O
ATOM     11  HD  IDS C   1      87.573  62.744  42.0640  0.00  0.00     0.000 HD
ENDROOT
BRANCH 2 11
ATOM     11   O  IDS C   1      90.816  61.213  41.8750  0.00  0.00     0.000 O
ATOM     12   S  IDS C   1      91.762  60.200  42.6720  0.00  0.00     0.000 S
ATOM     13   O  IDS C   1      90.847  59.613  43.6260  0.00  0.00     0.000 OA
ATOM     14   O  IDS C   1      92.833  60.937  43.2970  0.00  0.00     0.000 OA
ATOM     15   O  IDS C   1      92.221  59.270  41.6710  0.00  0.00     0.000 OA
ENDBRANCH 2 11
BRANCH 5 16
ATOM     16   C  IDS C   1      87.721  63.499  39.3300  0.00  0.00     0.000 C
ATOM     17   O  IDS C   1      87.591  62.956  38.2530  0.00  0.00     0.000 OA
ATOM     18   O  IDS C   1      86.769  63.963  39.8940  0.00  0.00     0.000 OA
ENDBRANCH 5 16
BRANCH 1 19
ATOM     19  O4  SGN C   2      91.990  63.435  39.1890  0.00  0.00     0.000 O
BRANCH 19 23
ATOM     20  C1  SGN C   2      94.219  64.081  35.7190  0.00  0.00     0.000 C
ATOM     21  C2  SGN C   2      92.693  64.121  35.5700  0.00  0.00     0.000 C
ATOM     22  C3  SGN C   2      92.046  64.306  36.9400  0.00  0.00     0.000 C
ATOM     23  C4  SGN C   2      92.499  63.192  37.8760  0.00  0.00     0.000 C
ATOM     24  C5  SGN C   2      94.029  63.140  37.9200  0.00  0.00     0.000 C
ATOM     25  O5  SGN C   2      94.551  63.009  36.5860  0.00  0.00     0.000 O
ATOM     26   O  SGN C   2      90.628  64.330  36.8230  0.00  0.00     0.000 O
ATOM     28  HD  SGN C   2      89.781  64.402  36.6570  0.00  0.00     0.000 HD
BRANCH 21 30
ATOM     28   N  SGN C   2      92.916  64.954  34.3810  0.00  0.00     0.000 N
ATOM     30  HD  SGN C   2      92.427  65.662  34.2840  0.00  0.00     0.000 HD
ATOM     30   S  SGN C   2      92.041  64.760  33.0560  0.00  0.00     0.000 S
ATOM     31   O  SGN C   2      90.686  64.850  33.4840  0.00  0.00     0.000 OA
ATOM     32   O  SGN C   2      92.529  65.642  32.0620  0.00  0.00     0.000 OA
ATOM     33   O  SGN C   2      92.382  63.305  32.5850  0.00  0.00     0.000 OA
ENDBRANCH 21 30
BRANCH 24 34
ATOM     34   C  SGN C   2      94.574  61.971  38.7080  0.00  0.00     0.000 C
ATOM     35   O  SGN C   2      95.121  62.457  39.9460  0.00  0.00     0.000 O
ATOM     36   S  SGN C   2      96.152  61.504  40.7070  0.00  0.00     0.000 S
ATOM     37   O  SGN C   2      97.166  61.194  39.7180  0.00  0.00     0.000 OA
ATOM     38   O  SGN C   2      96.651  62.279  41.8170  0.00  0.00     0.000 OA
ATOM     39   O  SGN C   2      95.352  60.370  41.1010  0.00  0.00     0.000 OA
ENDBRANCH 24 34
BRANCH 20 40
ATOM     40  O4  IDS C   3      94.825  65.188  36.1390  0.00  0.00     0.000 O
BRANCH 40 44
ATOM     41  C1  IDS C   3      96.424  68.236  36.9010  0.00  0.00     0.000 C
ATOM     42  C2  IDS C   3      95.449  68.117  35.7330  0.00  0.00     0.000 C
ATOM     43  C3  IDS C   3      95.839  66.947  34.8330  0.00  0.00     0.000 C
ATOM     44  C4  IDS C   3      96.070  65.674  35.6320  0.00  0.00     0.000 C
ATOM     45  C5  IDS C   3      97.034  65.957  36.8030  0.00  0.00     0.000 C
ATOM     46  O5  IDS C   3      96.502  67.006  37.6160  0.00  0.00     0.000 O
ATOM     47   O  IDS C   3      97.016  67.284  34.1030  0.00  0.00     0.000 O
ATOM     49  HD  IDS C   3      96.166  67.342  34.2580  0.00  0.00     0.000 HD
BRANCH 42 49
ATOM     49   O  IDS C   3      94.075  67.889  36.2390  0.00  0.00     0.000 O
ATOM     50   S  IDS C   3      92.848  68.688  35.5900  0.00  0.00     0.000 S
ATOM     51   O  IDS C   3      92.703  68.077  34.2870  0.00  0.00     0.000 OA
ATOM     52   O  IDS C   3      93.180  70.101  35.5100  0.00  0.00     0.000 OA
ATOM     53   O  IDS C   3      91.713  68.445  36.4550  0.00  0.00     0.000 OA
ENDBRANCH 42 49
BRANCH 45 54
ATOM     54   C  IDS C   3      97.290  64.742  37.6800  0.00  0.00     0.000 C
ATOM     55   O  IDS C   3      97.679  63.718  37.1810  0.00  0.00     0.000 OA
ATOM     56   O  IDS C   3      97.085  64.803  38.8770  0.00  0.00     0.000 OA
ENDBRANCH 45 54
BRANCH 41 57
ATOM     57  O4  SGN C   4      97.525  68.837  36.4320  0.00  0.00     0.000 O
BRANCH 57 61
ATOM     58  C1  SGN C   4     101.021  70.575  37.9440  0.00  0.00     0.000 C
ATOM     59  C2  SGN C   4     100.868  69.056  38.1270  0.00  0.00     0.000 C
ATOM     60  C3  SGN C   4      99.787  68.491  37.1960  0.00  0.00     0.000 C
ATOM     61  C4  SGN C   4      98.490  69.257  37.4010  0.00  0.00     0.000 C
ATOM     62  C5  SGN C   4      98.722  70.758  37.2330  0.00  0.00     0.000 C
ATOM     63  O5  SGN C   4      99.764  71.212  38.1170  0.00  0.00     0.000 O
BRANCH 59 66
ATOM     64   N  SGN C   4     102.256  68.593  38.0300  0.00  0.00     0.000 N
ATOM     66  HD  SGN C   4     101.393  68.646  37.9890  0.00  0.00     0.000 HD
ATOM     66   O  SGN C   4     104.162  67.241  38.7190  0.00  0.00     0.000 OA
ATOM     67   O  SGN C   4     102.687  68.236  40.4150  0.00  0.00     0.000 OA
ATOM     68   S  SGN C   4     102.798  67.476  39.0480  0.00  0.00     0.000 S
ATOM     69   O  SGN C   4     101.884  66.391  39.0480  0.00  0.00     0.000 OA
ENDBRANCH 59 66
BRANCH 62 70
ATOM     70   C  SGN C   4      97.482  71.550  37.5620  0.00  0.00     0.000 C
ATOM     71   S  SGN C   4      95.593  71.796  39.2780  0.00  0.00     0.000 S
ATOM     72   O  SGN C   4      95.779  73.234  39.2550  0.00  0.00     0.000 OA
ATOM     73   O  SGN C   4      94.647  71.324  38.2870  0.00  0.00     0.000 OA
ATOM     74   O  SGN C   4      95.365  71.264  40.6020  0.00  0.00     0.000 OA
ATOM     75   O  SGN C   4      97.006  71.199  38.8670  0.00  0.00     0.000 O
ENDBRANCH 62 70
ENDBRANCH 57 61
ENDBRANCH 41 57
ENDBRANCH 40 44
ENDBRANCH 20 40
ENDBRANCH 19 23
ENDBRANCH 1 19
TORSDOF 14
ENDMDL
MODEL 63
REMARK VINA RESULT:      -0.4    122.479    128.065
ROOT
ATOM      1  C1  IDS C   1     116.415  19.402 102.6600  0.00  0.00     0.000 C
ATOM      2  C2  IDS C   1     116.687  18.353 103.7240  0.00  0.00     0.000 C
ATOM      3  C3  IDS C   1     117.976  17.599 103.4220  0.00  0.00     0.000 C
ATOM      4  C4  IDS C   1     119.133  18.564 103.1650  0.00  0.00     0.000 C
ATOM      5  C5  IDS C   1     118.714  19.639 102.1410  0.00  0.00     0.000 C
ATOM      6  O5  IDS C   1     117.524  20.294 102.5660  0.00  0.00     0.000 O
ATOM      7   O  IDS C   1     117.776  16.746 102.2930  0.00  0.00     0.000 O
ATOM      9  HD  IDS C   1     118.629  16.887 102.2390  0.00  0.00     0.000 HD
ATOM      9   O  IDS C   1     119.495  19.199 104.4010  0.00  0.00     0.000 O
ATOM     11  HD  IDS C   1     120.347  19.340 104.3460  0.00  0.00     0.000 HD
ENDROOT
BRANCH 2 11
ATOM     11   O  IDS C   1     116.842  18.997 105.0470  0.00  0.00     0.000 O
ATOM     12   S  IDS C   1     115.652  18.962 106.1140  0.00  0.00     0.000 S
ATOM     13   O  IDS C   1     116.368  18.879 107.3680  0.00  0.00     0.000 OA
ATOM     14   O  IDS C   1     114.819  17.811 105.8630  0.00  0.00     0.000 OA
ATOM     15   O  IDS C   1     114.962  20.214 105.9290  0.00  0.00     0.000 OA
ENDBRANCH 2 11
BRANCH 5 16
ATOM     16   C  IDS C   1     119.775  20.702 101.9210  0.00  0.00     0.000 C
ATOM     17   O  IDS C   1     120.847  20.583 102.4750  0.00  0.00     0.000 OA
ATOM     18   O  IDS C   1     119.555  21.655 101.2250  0.00  0.00     0.000 OA
ENDBRANCH 5 16
BRANCH 1 19
ATOM     19  O4  SGN C   2     115.870  19.023 101.5000  0.00  0.00     0.000 O
BRANCH 19 23
ATOM     20  C1  SGN C   2     113.608  20.252  98.2140  0.00  0.00     0.000 C
ATOM     21  C2  SGN C   2     115.059  20.745  98.2690  0.00  0.00     0.000 C
ATOM     22  C3  SGN C   2     115.858  19.888  99.2480  0.00  0.00     0.000 C
ATOM     23  C4  SGN C   2     115.191  19.920 100.6190  0.00  0.00     0.000 C
ATOM     24  C5  SGN C   2     113.723  19.504 100.4930  0.00  0.00     0.000 C
ATOM     25  O5  SGN C   2     113.063  20.333  99.5210  0.00  0.00     0.000 O
ATOM     26   O  SGN C   2     117.204  20.342  99.3240  0.00  0.00     0.000 O
ATOM     28  HD  SGN C   2     118.016  20.636  99.2600  0.00  0.00     0.000 HD
BRANCH 21 30
ATOM     28   N  SGN C   2     115.187  20.798  96.8070  0.00  0.00     0.000 N
ATOM     30  HD  SGN C   2     115.970  20.662  96.4630  0.00  0.00     0.000 HD
ATOM     30   S  SGN C   2     115.629  22.143  96.0620  0.00  0.00     0.000 S
ATOM     31   O  SGN C   2     116.847  22.536  96.6860  0.00  0.00     0.000 OA
ATOM     32   O  SGN C   2     115.591  21.916  94.6650  0.00  0.00     0.000 OA
ATOM     33   O  SGN C   2     114.480  23.156  96.3920  0.00  0.00     0.000 OA
ENDBRANCH 21 30
BRANCH 24 34
ATOM     34   C  SGN C   2     112.940  19.646 101.7770  0.00  0.00     0.000 C
ATOM     35   O  SGN C   2     112.769  18.345 102.3670  0.00  0.00     0.000 O
ATOM     36   S  SGN C   2     111.600  18.185 103.4430  0.00  0.00     0.000 S
ATOM     37   O  SGN C   2     110.410  18.667 102.7700  0.00  0.00     0.000 OA
ATOM     38   O  SGN C   2     111.551  16.777 103.7570  0.00  0.00     0.000 OA
ATOM     39   O  SGN C   2     112.025  19.012 104.5450  0.00  0.00     0.000 OA
ENDBRANCH 24 34
BRANCH 20 40
ATOM     40  O4  IDS C   3     113.390  19.034  97.7230  0.00  0.00     0.000 O
BRANCH 40 44
ATOM     41  C1  IDS C   3     112.801  15.954  96.1140  0.00  0.00     0.000 C
ATOM     42  C2  IDS C   3     113.596  17.068  95.4380  0.00  0.00     0.000 C
ATOM     43  C3  IDS C   3     112.810  18.377  95.4740  0.00  0.00     0.000 C
ATOM     44  C4  IDS C   3     112.296  18.686  96.8710  0.00  0.00     0.000 C
ATOM     45  C5  IDS C   3     111.560  17.457  97.4450  0.00  0.00     0.000 C
ATOM     46  O5  IDS C   3     112.439  16.331  97.4400  0.00  0.00     0.000 O
ATOM     47   O  IDS C   3     111.719  18.298  94.5610  0.00  0.00     0.000 O
ATOM     49  HD  IDS C   3     112.560  18.386  94.7450  0.00  0.00     0.000 HD
BRANCH 42 49
ATOM     49   O  IDS C   3     114.886  17.270  96.1380  0.00  0.00     0.000 O
ATOM     50   S  IDS C   3     116.241  17.372  95.2900  0.00  0.00     0.000 S
ATOM     51   O  IDS C   3     116.137  18.664  94.6490  0.00  0.00     0.000 OA
ATOM     52   O  IDS C   3     116.296  16.278  94.3340  0.00  0.00     0.000 OA
ATOM     53   O  IDS C   3     117.319  17.306  96.2530  0.00  0.00     0.000 OA
ENDBRANCH 42 49
BRANCH 45 54
ATOM     54   C  IDS C   3     111.046  17.669  98.8600  0.00  0.00     0.000 C
ATOM     55   O  IDS C   3     110.319  18.600  99.0980  0.00  0.00     0.000 OA
ATOM     56   O  IDS C   3     111.383  16.911  99.7480  0.00  0.00     0.000 OA
ENDBRANCH 45 54
BRANCH 41 57
ATOM     57  O4  SGN C   4     111.882  15.539  95.2340  0.00  0.00     0.000 O
BRANCH 57 61
ATOM     58  C1  SGN C   4     109.120  12.417  94.8430  0.00  0.00     0.000 C
ATOM     59  C2  SGN C   4     108.821  13.473  95.9190  0.00  0.00     0.000 C
ATOM     60  C3  SGN C   4     109.650  14.745  95.6930  0.00  0.00     0.000 C
ATOM     61  C4  SGN C   4     111.122  14.382  95.5960  0.00  0.00     0.000 C
ATOM     62  C5  SGN C   4     111.340  13.309  94.5300  0.00  0.00     0.000 C
ATOM     63  O5  SGN C   4     110.515  12.158  94.7930  0.00  0.00     0.000 O
BRANCH 59 66
ATOM     64   N  SGN C   4     107.359  13.587  95.9090  0.00  0.00     0.000 N
ATOM     66  HD  SGN C   4     108.205  13.745  96.0110  0.00  0.00     0.000 HD
ATOM     66   O  SGN C   4     105.162  13.616  96.9610  0.00  0.00     0.000 OA
ATOM     67   O  SGN C   4     106.860  12.003  97.7090  0.00  0.00     0.000 OA
ATOM     68   S  SGN C   4     106.541  13.478  97.2850  0.00  0.00     0.000 S
ATOM     69   O  SGN C   4     107.127  14.365  98.2250  0.00  0.00     0.000 OA
ENDBRANCH 59 66
BRANCH 62 70
ATOM     70   C  SGN C   4     112.772  12.833  94.5070  0.00  0.00     0.000 C
ATOM     71   S  SGN C   4     114.721  12.103  96.0030  0.00  0.00     0.000 S
ATOM     72   O  SGN C   4     114.965  10.984  95.1150  0.00  0.00     0.000 OA
ATOM     73   O  SGN C   4     115.443  13.302  95.6270  0.00  0.00     0.000 OA
ATOM     74   O  SGN C   4     114.840  11.767  97.4030  0.00  0.00     0.000 OA
ATOM     75   O  SGN C   4     113.179  12.436  95.8220  0.00  0.00     0.000 O
ENDBRANCH 62 70
ENDBRANCH 57 61
ENDBRANCH 41 57
ENDBRANCH 40 44
ENDBRANCH 20 40
ENDBRANCH 19 23
ENDBRANCH 1 19
TORSDOF 14
ENDMDL
MODEL 64
REMARK VINA RESULT:      -0.4    106.671    112.140
ROOT
ATOM      1  C1  IDS C   1     106.610  53.557   6.7580  0.00  0.00     0.000 C
ATOM      2  C2  IDS C   1     107.246  52.180   6.7000  0.00  0.00     0.000 C
ATOM      3  C3  IDS C   1     106.972  51.403   7.9820  0.00  0.00     0.000 C
ATOM      4  C4  IDS C   1     105.481  51.405   8.3200  0.00  0.00     0.000 C
ATOM      5  C5  IDS C   1     104.921  52.840   8.2580  0.00  0.00     0.000 C
ATOM      6  O5  IDS C   1     105.208  53.432   6.9950  0.00  0.00     0.000 O
ATOM      7   O  IDS C   1     107.728  51.970   9.0540  0.00  0.00     0.000 O
ATOM      9  HD  IDS C   1     107.065  51.626   9.4910  0.00  0.00     0.000 HD
ATOM      9   O  IDS C   1     104.787  50.580   7.3710  0.00  0.00     0.000 O
ATOM     11  HD  IDS C   1     104.123  50.236   7.8090  0.00  0.00     0.000 HD
ENDROOT
BRANCH 2 11
ATOM     11   O  IDS C   1     106.681  51.403   5.5740  0.00  0.00     0.000 O
ATOM     12   S  IDS C   1     107.629  50.843   4.4160  0.00  0.00     0.000 S
ATOM     13   O  IDS C   1     106.989  49.592   4.0750  0.00  0.00     0.000 OA
ATOM     14   O  IDS C   1     108.965  50.671   4.9320  0.00  0.00     0.000 OA
ATOM     15   O  IDS C   1     107.547  51.833   3.3700  0.00  0.00     0.000 OA
ENDBRANCH 2 11
BRANCH 5 16
ATOM     16   C  IDS C   1     103.420  52.908   8.4690  0.00  0.00     0.000 C
ATOM     17   O  IDS C   1     102.816  53.880   8.0670  0.00  0.00     0.000 OA
ATOM     18   O  IDS C   1     102.838  52.025   9.0380  0.00  0.00     0.000 OA
ENDBRANCH 5 16
BRANCH 1 19
ATOM     19  O4  SGN C   2     107.231  54.531   7.4290  0.00  0.00     0.000 O
BRANCH 19 23
ATOM     20  C1  SGN C   2     108.213  58.588   7.4480  0.00  0.00     0.000 C
ATOM     21  C2  SGN C   2     106.759  58.235   7.7820  0.00  0.00     0.000 C
ATOM     22  C3  SGN C   2     106.661  56.759   8.1600  0.00  0.00     0.000 C
ATOM     23  C4  SGN C   2     107.211  55.902   7.0250  0.00  0.00     0.000 C
ATOM     24  C5  SGN C   2     108.631  56.354   6.6730  0.00  0.00     0.000 C
ATOM     25  O5  SGN C   2     108.635  57.762   6.3750  0.00  0.00     0.000 O
ATOM     26   O  SGN C   2     105.315  56.409   8.4580  0.00  0.00     0.000 O
ATOM     28  HD  SGN C   2     104.488  56.296   8.6890  0.00  0.00     0.000 HD
BRANCH 21 30
ATOM     28   N  SGN C   2     106.736  59.565   8.4040  0.00  0.00     0.000 N
ATOM     30  HD  SGN C   2     106.465  59.624   9.2250  0.00  0.00     0.000 HD
ATOM     30   S  SGN C   2     105.405  60.453   8.4130  0.00  0.00     0.000 S
ATOM     31   O  SGN C   2     104.399  59.619   8.9760  0.00  0.00     0.000 OA
ATOM     32   O  SGN C   2     105.703  61.703   9.0080  0.00  0.00     0.000 OA
ATOM     33   O  SGN C   2     105.120  60.725   6.8960  0.00  0.00     0.000 OA
ENDBRANCH 21 30
BRANCH 24 34
ATOM     34   C  SGN C   2     109.205  55.660   5.4610  0.00  0.00     0.000 C
ATOM     35   O  SGN C   2     110.175  54.689   5.8930  0.00  0.00     0.000 O
ATOM     36   S  SGN C   2     111.230  54.185   4.8070  0.00  0.00     0.000 S
ATOM     37   O  SGN C   2     111.831  55.397   4.2850  0.00  0.00     0.000 OA
ATOM     38   O  SGN C   2     112.160  53.347   5.5260  0.00  0.00     0.000 OA
ATOM     39   O  SGN C   2     110.427  53.469   3.8460  0.00  0.00     0.000 OA
ENDBRANCH 24 34
BRANCH 20 40
ATOM     40  O4  IDS C   3     109.106  58.518   8.4320  0.00  0.00     0.000 O
BRANCH 40 44
ATOM     41  C1  IDS C   3     111.331  58.722  11.1590  0.00  0.00     0.000 C
ATOM     42  C2  IDS C   3     110.037  59.530  11.1230  0.00  0.00     0.000 C
ATOM     43  C3  IDS C   3     109.936  60.313   9.8160  0.00  0.00     0.000 C
ATOM     44  C4  IDS C   3     110.195  59.427   8.6070  0.00  0.00     0.000 C
ATOM     45  C5  IDS C   3     111.506  58.637   8.8060  0.00  0.00     0.000 C
ATOM     46  O5  IDS C   3     111.426  57.878  10.0140  0.00  0.00     0.000 O
ATOM     47   O  IDS C   3     110.869  61.391   9.8370  0.00  0.00     0.000 O
ATOM     49  HD  IDS C   3     110.130  61.012  10.0790  0.00  0.00     0.000 HD
BRANCH 42 49
ATOM     49   O  IDS C   3     108.869  58.626  11.2240  0.00  0.00     0.000 O
ATOM     50   S  IDS C   3     107.671  58.986  12.2250  0.00  0.00     0.000 S
ATOM     51   O  IDS C   3     107.022  60.106  11.5800  0.00  0.00     0.000 OA
ATOM     52   O  IDS C   3     108.217  59.333  13.5270  0.00  0.00     0.000 OA
ATOM     53   O  IDS C   3     106.833  57.807  12.2840  0.00  0.00     0.000 OA
ENDBRANCH 42 49
BRANCH 45 54
ATOM     54   C  IDS C   3     111.820  57.693   7.6560  0.00  0.00     0.000 C
ATOM     55   O  IDS C   3     111.990  56.522   7.8750  0.00  0.00     0.000 OA
ATOM     56   O  IDS C   3     111.915  58.126   6.5240  0.00  0.00     0.000 OA
ENDBRANCH 45 54
BRANCH 41 57
ATOM     57  O4  SGN C   4     112.315  59.572  11.4790  0.00  0.00     0.000 O
BRANCH 57 61
ATOM     58  C1  SGN C   4     116.347  59.406  12.5950  0.00  0.00     0.000 C
ATOM     59  C2  SGN C   4     116.008  58.969  11.1600  0.00  0.00     0.000 C
ATOM     60  C3  SGN C   4     114.611  59.455  10.7480  0.00  0.00     0.000 C
ATOM     61  C4  SGN C   4     113.590  58.995  11.7750  0.00  0.00     0.000 C
ATOM     62  C5  SGN C   4     114.005  59.437  13.1780  0.00  0.00     0.000 C
ATOM     63  O5  SGN C   4     115.331  58.968  13.4860  0.00  0.00     0.000 O
BRANCH 59 66
ATOM     64   N  SGN C   4     117.150  59.422  10.3590  0.00  0.00     0.000 N
ATOM     66  HD  SGN C   4     116.365  59.157  10.6130  0.00  0.00     0.000 HD
ATOM     66   O  SGN C   4     118.970  59.104   8.7720  0.00  0.00     0.000 OA
ATOM     67   O  SGN C   4     118.498  57.380  10.4600  0.00  0.00     0.000 OA
ATOM     68   S  SGN C   4     117.917  58.385   9.4060  0.00  0.00     0.000 S
ATOM     69   O  SGN C   4     116.955  57.713   8.6090  0.00  0.00     0.000 OA
ENDBRANCH 59 66
BRANCH 62 70
ATOM     70   C  SGN C   4     113.080  58.880  14.2310  0.00  0.00     0.000 C
ATOM     71   S  SGN C   4     111.900  56.742  15.0080  0.00  0.00     0.000 S
ATOM     72   O  SGN C   4     112.301  57.032  16.3700  0.00  0.00     0.000 OA
ATOM     73   O  SGN C   4     110.625  57.328  14.6480  0.00  0.00     0.000 OA
ATOM     74   O  SGN C   4     112.018  55.345  14.6560  0.00  0.00     0.000 OA
ATOM     75   O  SGN C   4     112.991  57.456  14.1030  0.00  0.00     0.000 O
ENDBRANCH 62 70
ENDBRANCH 57 61
ENDBRANCH 41 57
ENDBRANCH 40 44
ENDBRANCH 20 40
ENDBRANCH 19 23
ENDBRANCH 1 19
TORSDOF 14
ENDMDL
MODEL 65
REMARK VINA RESULT:      -0.4     74.737     80.387
ROOT
ATOM      1  C1  IDS C   1      12.717  70.894  67.6590  0.00  0.00     0.000 C
ATOM      2  C2  IDS C   1      11.821  71.708  66.7420  0.00  0.00     0.000 C
ATOM      3  C3  IDS C   1      12.462  73.051  66.4150  0.00  0.00     0.000 C
ATOM      4  C4  IDS C   1      13.895  72.872  65.9140  0.00  0.00     0.000 C
ATOM      5  C5  IDS C   1      14.683  71.954  66.8700  0.00  0.00     0.000 C
ATOM      6  O5  IDS C   1      13.997  70.720  67.0540  0.00  0.00     0.000 O
ATOM      7   O  IDS C   1      12.438  73.886  67.5740  0.00  0.00     0.000 O
ATOM      9  HD  IDS C   1      13.126  74.208  67.1600  0.00  0.00     0.000 HD
ATOM      9   O  IDS C   1      13.862  72.282  64.6060  0.00  0.00     0.000 O
ATOM     11  HD  IDS C   1      14.550  72.604  64.1910  0.00  0.00     0.000 HD
ENDROOT
BRANCH 2 11
ATOM     11   O  IDS C   1      11.607  70.989  65.4670  0.00  0.00     0.000 O
ATOM     12   S  IDS C   1      10.135  70.809  64.8710  0.00  0.00     0.000 S
ATOM     13   O  IDS C   1      10.371  70.879  63.4460  0.00  0.00     0.000 OA
ATOM     14   O  IDS C   1       9.290  71.874  65.3560  0.00  0.00     0.000 OA
ATOM     15   O  IDS C   1       9.719  69.504  65.3210  0.00  0.00     0.000 OA
ENDBRANCH 2 11
BRANCH 5 16
ATOM     16   C  IDS C   1      16.083  71.636  66.3780  0.00  0.00     0.000 C
ATOM     17   O  IDS C   1      16.627  72.413  65.6210  0.00  0.00     0.000 OA
ATOM     18   O  IDS C   1      16.640  70.628  66.7150  0.00  0.00     0.000 OA
ENDBRANCH 5 16
BRANCH 1 19
ATOM     19  O4  SGN C   2      12.721  71.161  68.9680  0.00  0.00     0.000 O
BRANCH 19 23
ATOM     20  C1  SGN C   2      12.568  69.520  72.8030  0.00  0.00     0.000 C
ATOM     21  C2  SGN C   2      13.877  69.328  72.0280  0.00  0.00     0.000 C
ATOM     22  C3  SGN C   2      13.942  70.323  70.8720  0.00  0.00     0.000 C
ATOM     23  C4  SGN C   2      12.719  70.151  69.9780  0.00  0.00     0.000 C
ATOM     24  C5  SGN C   2      11.443  70.265  70.8160  0.00  0.00     0.000 C
ATOM     25  O5  SGN C   2      11.488  69.325  71.9050  0.00  0.00     0.000 O
ATOM     26   O  SGN C   2      15.144  70.148  70.1310  0.00  0.00     0.000 O
ATOM     28  HD  SGN C   2      15.926  70.023  69.7790  0.00  0.00     0.000 HD
BRANCH 21 30
ATOM     28   N  SGN C   2      14.571  69.217  73.3170  0.00  0.00     0.000 N
ATOM     30  HD  SGN C   2      15.338  69.610  73.4000  0.00  0.00     0.000 HD
ATOM     30   S  SGN C   2      15.673  68.084  73.5710  0.00  0.00     0.000 S
ATOM     31   O  SGN C   2      16.609  68.225  72.5070  0.00  0.00     0.000 OA
ATOM     32   O  SGN C   2      16.109  68.174  74.9140  0.00  0.00     0.000 OA
ATOM     33   O  SGN C   2      14.875  66.742  73.4370  0.00  0.00     0.000 OA
ENDBRANCH 21 30
BRANCH 24 34
ATOM     34   C  SGN C   2      10.180  69.962  70.0440  0.00  0.00     0.000 C
ATOM     35   O  SGN C   2       9.551  71.201  69.6720  0.00  0.00     0.000 O
ATOM     36   S  SGN C   2       8.004  71.140  69.2800  0.00  0.00     0.000 S
ATOM     37   O  SGN C   2       7.363  70.489  70.4060  0.00  0.00     0.000 OA
ATOM     38   O  SGN C   2       7.594  72.511  69.1000  0.00  0.00     0.000 OA
ATOM     39   O  SGN C   2       7.984  70.362  68.0650  0.00  0.00     0.000 OA
ENDBRANCH 24 34
BRANCH 20 40
ATOM     40  O4  IDS C   3      12.398  70.672  73.4480  0.00  0.00     0.000 O
BRANCH 40 44
ATOM     41  C1  IDS C   3      12.180  73.562  75.4540  0.00  0.00     0.000 C
ATOM     42  C2  IDS C   3      13.358  72.599  75.5680  0.00  0.00     0.000 C
ATOM     43  C3  IDS C   3      12.858  71.170  75.7650  0.00  0.00     0.000 C
ATOM     44  C4  IDS C   3      11.798  70.798  74.7400  0.00  0.00     0.000 C
ATOM     45  C5  IDS C   3      10.701  71.883  74.7010  0.00  0.00     0.000 C
ATOM     46  O5  IDS C   3      11.296  73.151  74.4150  0.00  0.00     0.000 O
ATOM     47   O  IDS C   3      12.330  71.030  77.0820  0.00  0.00     0.000 O
ATOM     49  HD  IDS C   3      12.987  71.100  76.5220  0.00  0.00     0.000 HD
BRANCH 42 49
ATOM     49   O  IDS C   3      14.178  72.649  74.3350  0.00  0.00     0.000 O
ATOM     50   S  IDS C   3      15.773  72.750  74.4460  0.00  0.00     0.000 S
ATOM     51   O  IDS C   3      16.159  71.436  74.9100  0.00  0.00     0.000 OA
ATOM     52   O  IDS C   3      16.125  73.800  75.3880  0.00  0.00     0.000 OA
ATOM     53   O  IDS C   3      16.247  73.037  73.1090  0.00  0.00     0.000 OA
ENDBRANCH 42 49
BRANCH 45 54
ATOM     54   C  IDS C   3       9.618  71.608  73.6700  0.00  0.00     0.000 C
ATOM     55   O  IDS C   3       9.424  72.398  72.7830  0.00  0.00     0.000 OA
ATOM     56   O  IDS C   3       8.942  70.601  73.7540  0.00  0.00     0.000 OA
ENDBRANCH 45 54
BRANCH 41 57
ATOM     57  O4  SGN C   4      11.735  73.785  76.6970  0.00  0.00     0.000 O
BRANCH 57 61
ATOM     58  C1  SGN C   4       9.038  76.331  78.6410  0.00  0.00     0.000 C
ATOM     59  C2  SGN C   4       8.447  75.349  77.6170  0.00  0.00     0.000 C
ATOM     60  C3  SGN C   4       9.438  74.223  77.2910  0.00  0.00     0.000 C
ATOM     61  C4  SGN C   4      10.763  74.824  76.8540  0.00  0.00     0.000 C
ATOM     62  C5  SGN C   4      11.276  75.809  77.9030  0.00  0.00     0.000 C
ATOM     63  O5  SGN C   4      10.287  76.821  78.1760  0.00  0.00     0.000 O
BRANCH 59 66
ATOM     64   N  SGN C   4       7.144  74.994  78.1890  0.00  0.00     0.000 N
ATOM     66  HD  SGN C   4       7.885  74.986  77.7410  0.00  0.00     0.000 HD
ATOM     66   O  SGN C   4       4.730  74.679  78.0990  0.00  0.00     0.000 OA
ATOM     67   O  SGN C   4       5.759  76.601  76.9630  0.00  0.00     0.000 OA
ATOM     68   S  SGN C   4       5.826  75.066  77.2770  0.00  0.00     0.000 S
ATOM     69   O  SGN C   4       6.076  74.359  76.0720  0.00  0.00     0.000 OA
ENDBRANCH 59 66
BRANCH 62 70
ATOM     70   C  SGN C   4      12.521  76.520  77.4340  0.00  0.00     0.000 C
ATOM     71   S  SGN C   4      13.543  77.789  75.4560  0.00  0.00     0.000 S
ATOM     72   O  SGN C   4      14.040  78.794  76.3750  0.00  0.00     0.000 OA
ATOM     73   O  SGN C   4      14.469  76.694  75.2460  0.00  0.00     0.000 OA
ATOM     74   O  SGN C   4      13.007  78.341  74.2330  0.00  0.00     0.000 OA
ATOM     75   O  SGN C   4      12.274  77.169  76.1810  0.00  0.00     0.000 O
ENDBRANCH 62 70
ENDBRANCH 57 61
ENDBRANCH 41 57
ENDBRANCH 40 44
ENDBRANCH 20 40
ENDBRANCH 19 23
ENDBRANCH 1 19
TORSDOF 14
ENDMDL
MODEL 66
REMARK VINA RESULT:      -0.4     81.644     86.229
ROOT
ATOM      1  C1  IDS C   1      84.597  49.167  19.0680  0.00  0.00     0.000 C
ATOM      2  C2  IDS C   1      84.394  48.463  17.7380  0.00  0.00     0.000 C
ATOM      3  C3  IDS C   1      85.536  48.779  16.7800  0.00  0.00     0.000 C
ATOM      4  C4  IDS C   1      86.894  48.527  17.4360  0.00  0.00     0.000 C
ATOM      5  C5  IDS C   1      86.953  49.209  18.8180  0.00  0.00     0.000 C
ATOM      6  O5  IDS C   1      85.856  48.794  19.6260  0.00  0.00     0.000 O
ATOM      7   O  IDS C   1      85.434  50.136  16.3480  0.00  0.00     0.000 O
ATOM      9  HD  IDS C   1      86.286  50.007  16.2670  0.00  0.00     0.000 HD
ATOM      9   O  IDS C   1      87.080  47.112  17.5950  0.00  0.00     0.000 O
ATOM     11  HD  IDS C   1      87.932  46.982  17.5140  0.00  0.00     0.000 HD
ENDROOT
BRANCH 2 11
ATOM     11   O  IDS C   1      84.366  46.996  17.9360  0.00  0.00     0.000 O
ATOM     12   S  IDS C   1      83.020  46.169  17.6970  0.00  0.00     0.000 S
ATOM     13   O  IDS C   1      83.520  44.917  17.1720  0.00  0.00     0.000 OA
ATOM     14   O  IDS C   1      82.183  46.878  16.7600  0.00  0.00     0.000 OA
ATOM     15   O  IDS C   1      82.431  46.048  19.0070  0.00  0.00     0.000 OA
ENDBRANCH 2 11
BRANCH 5 16
ATOM     16   C  IDS C   1      88.229  48.907  19.5810  0.00  0.00     0.000 C
ATOM     17   O  IDS C   1      89.081  48.226  19.0510  0.00  0.00     0.000 OA
ATOM     18   O  IDS C   1      88.391  49.320  20.6970  0.00  0.00     0.000 OA
ENDBRANCH 5 16
BRANCH 1 19
ATOM     19  O4  SGN C   2      84.271  50.459  19.1740  0.00  0.00     0.000 O
BRANCH 19 23
ATOM     20  C1  SGN C   2      82.894  53.447  21.7440  0.00  0.00     0.000 C
ATOM     21  C2  SGN C   2      84.333  52.966  21.9620  0.00  0.00     0.000 C
ATOM     22  C3  SGN C   2      84.824  52.227  20.7200  0.00  0.00     0.000 C
ATOM     23  C4  SGN C   2      83.879  51.073  20.4030  0.00  0.00     0.000 C
ATOM     24  C5  SGN C   2      82.444  51.594  20.2820  0.00  0.00     0.000 C
ATOM     25  O5  SGN C   2      82.084  52.314  21.4750  0.00  0.00     0.000 O
ATOM     26   O  SGN C   2      86.154  51.760  20.9110  0.00  0.00     0.000 O
ATOM     28  HD  SGN C   2      86.982  51.572  21.0810  0.00  0.00     0.000 HD
BRANCH 21 30
ATOM     28   N  SGN C   2      84.624  54.276  22.5590  0.00  0.00     0.000 N
ATOM     30  HD  SGN C   2      85.374  54.659  22.3530  0.00  0.00     0.000 HD
ATOM     30   S  SGN C   2      85.488  54.403  23.9000  0.00  0.00     0.000 S
ATOM     31   O  SGN C   2      86.694  53.692  23.6400  0.00  0.00     0.000 OA
ATOM     32   O  SGN C   2      85.538  55.767  24.2750  0.00  0.00     0.000 OA
ATOM     33   O  SGN C   2      84.625  53.663  24.9790  0.00  0.00     0.000 OA
ENDBRANCH 21 30
BRANCH 24 34
ATOM     34   C  SGN C   2      81.414  50.502  20.1150  0.00  0.00     0.000 C
ATOM     35   O  SGN C   2      80.992  50.465  18.7410  0.00  0.00     0.000 O
ATOM     36   S  SGN C   2      79.604  49.740  18.4280  0.00  0.00     0.000 S
ATOM     37   O  SGN C   2      78.645  50.386  19.3020  0.00  0.00     0.000 OA
ATOM     38   O  SGN C   2      79.351  49.971  17.0260  0.00  0.00     0.000 OA
ATOM     39   O  SGN C   2      79.853  48.356  18.7530  0.00  0.00     0.000 OA
ENDBRANCH 24 34
BRANCH 20 40
ATOM     40  O4  IDS C   3      82.687  54.365  20.8020  0.00  0.00     0.000 O
BRANCH 40 44
ATOM     41  C1  IDS C   3      82.246  57.064  18.5780  0.00  0.00     0.000 C
ATOM     42  C2  IDS C   3      83.228  57.143  19.7430  0.00  0.00     0.000 C
ATOM     43  C3  IDS C   3      82.534  56.761  21.0490  0.00  0.00     0.000 C
ATOM     44  C4  IDS C   3      81.768  55.454  20.9180  0.00  0.00     0.000 C
ATOM     45  C5  IDS C   3      80.857  55.501  19.6740  0.00  0.00     0.000 C
ATOM     46  O5  IDS C   3      81.647  55.772  18.5150  0.00  0.00     0.000 O
ATOM     47   O  IDS C   3      81.647  57.807  21.4360  0.00  0.00     0.000 O
ATOM     49  HD  IDS C   3      82.438  57.467  21.3440  0.00  0.00     0.000 HD
BRANCH 42 49
ATOM     49   O  IDS C   3      84.360  56.214  19.5190  0.00  0.00     0.000 O
ATOM     50   S  IDS C   3      85.861  56.721  19.7580  0.00  0.00     0.000 S
ATOM     51   O  IDS C   3      85.952  56.830  21.1970  0.00  0.00     0.000 OA
ATOM     52   O  IDS C   3      86.052  57.997  19.0880  0.00  0.00     0.000 OA
ATOM     53   O  IDS C   3      86.720  55.689  19.2160  0.00  0.00     0.000 OA
ENDBRANCH 42 49
BRANCH 45 54
ATOM     54   C  IDS C   3      80.082  54.213  19.4460  0.00  0.00     0.000 C
ATOM     55   O  IDS C   3      80.187  53.630  18.3980  0.00  0.00     0.000 OA
ATOM     56   O  IDS C   3      79.347  53.785  20.3150  0.00  0.00     0.000 OA
ENDBRANCH 45 54
BRANCH 41 57
ATOM     57  O4  SGN C   4      81.500  58.174  18.6190  0.00  0.00     0.000 O
BRANCH 57 61
ATOM     58  C1  SGN C   4      78.734  60.171  16.1920  0.00  0.00     0.000 C
ATOM     59  C2  SGN C   4      78.329  58.777  16.6980  0.00  0.00     0.000 C
ATOM     60  C3  SGN C   4      79.210  58.338  17.8770  0.00  0.00     0.000 C
ATOM     61  C4  SGN C   4      80.673  58.435  17.4800  0.00  0.00     0.000 C
ATOM     62  C5  SGN C   4      80.997  59.835  16.9600  0.00  0.00     0.000 C
ATOM     63  O5  SGN C   4      80.118  60.188  15.8750  0.00  0.00     0.000 O
BRANCH 59 66
ATOM     64   N  SGN C   4      76.883  58.884  16.9160  0.00  0.00     0.000 N
ATOM     66  HD  SGN C   4      77.713  58.638  16.9500  0.00  0.00     0.000 HD
ATOM     66   O  SGN C   4      74.573  58.156  16.6530  0.00  0.00     0.000 OA
ATOM     67   O  SGN C   4      76.125  58.027  14.7510  0.00  0.00     0.000 OA
ATOM     68   S  SGN C   4      75.897  57.787  16.2840  0.00  0.00     0.000 S
ATOM     69   O  SGN C   4      76.383  56.499  16.6260  0.00  0.00     0.000 OA
ENDBRANCH 59 66
BRANCH 62 70
ATOM     70   C  SGN C   4      82.408  59.918  16.4340  0.00  0.00     0.000 C
ATOM     71   S  SGN C   4      84.117  58.738  14.9320  0.00  0.00     0.000 S
ATOM     72   O  SGN C   4      84.460  60.017  14.3420  0.00  0.00     0.000 OA
ATOM     73   O  SGN C   4      84.907  58.417  16.1040  0.00  0.00     0.000 OA
ATOM     74   O  SGN C   4      84.035  57.661  13.9720  0.00  0.00     0.000 OA
ATOM     75   O  SGN C   4      82.622  58.913  15.4370  0.00  0.00     0.000 O
ENDBRANCH 62 70
ENDBRANCH 57 61
ENDBRANCH 41 57
ENDBRANCH 40 44
ENDBRANCH 20 40
ENDBRANCH 19 23
ENDBRANCH 1 19
TORSDOF 14
ENDMDL
MODEL 67
REMARK VINA RESULT:      -0.4    111.536    115.554
ROOT
ATOM      1  C1  IDS C   1     111.600  62.255  25.7140  0.00  0.00     0.000 C
ATOM      2  C2  IDS C   1     110.990  61.086  24.9620  0.00  0.00     0.000 C
ATOM      3  C3  IDS C   1     111.792  60.775  23.7040  0.00  0.00     0.000 C
ATOM      4  C4  IDS C   1     113.280  60.625  24.0200  0.00  0.00     0.000 C
ATOM      5  C5  IDS C   1     113.769  61.819  24.8640  0.00  0.00     0.000 C
ATOM      6  O5  IDS C   1     112.962  61.970  26.0280  0.00  0.00     0.000 O
ATOM      7   O  IDS C   1     111.587  61.810  22.7410  0.00  0.00     0.000 O
ATOM      9  HD  IDS C   1     112.372  61.528  22.5080  0.00  0.00     0.000 HD
ATOM      9   O  IDS C   1     113.480  59.408  24.7560  0.00  0.00     0.000 O
ATOM     11  HD  IDS C   1     114.265  59.126  24.5230  0.00  0.00     0.000 HD
ENDROOT
BRANCH 2 11
ATOM     11   O  IDS C   1     110.997  59.873  25.8110  0.00  0.00     0.000 O
ATOM     12   S  IDS C   1     109.627  59.164  26.2270  0.00  0.00     0.000 S
ATOM     13   O  IDS C   1     110.001  57.767  26.2520  0.00  0.00     0.000 OA
ATOM     14   O  IDS C   1     108.617  59.459  25.2400  0.00  0.00     0.000 OA
ATOM     15   O  IDS C   1     109.322  59.700  27.5300  0.00  0.00     0.000 OA
ENDBRANCH 2 11
BRANCH 5 16
ATOM     16   C  IDS C   1     115.212  61.684  25.3160  0.00  0.00     0.000 C
ATOM     17   O  IDS C   1     115.473  60.912  26.2140  0.00  0.00     0.000 OA
ATOM     18   O  IDS C   1     116.079  62.339  24.8080  0.00  0.00     0.000 OA
ENDBRANCH 5 16
BRANCH 1 19
ATOM     19  O4  SGN C   2     111.345  63.499  25.2970  0.00  0.00     0.000 O
BRANCH 19 23
ATOM     20  C1  SGN C   2     110.621  67.432  26.4930  0.00  0.00     0.000 C
ATOM     21  C2  SGN C   2     112.068  66.937  26.6080  0.00  0.00     0.000 C
ATOM     22  C3  SGN C   2     112.254  65.687  25.7520  0.00  0.00     0.000 C
ATOM     23  C4  SGN C   2     111.251  64.621  26.1770  0.00  0.00     0.000 C
ATOM     24  C5  SGN C   2     109.832  65.194  26.1280  0.00  0.00     0.000 C
ATOM     25  O5  SGN C   2     109.761  66.390  26.9240  0.00  0.00     0.000 O
ATOM     26   O  SGN C   2     113.588  65.204  25.8590  0.00  0.00     0.000 O
ATOM     28  HD  SGN C   2     114.432  65.017  25.9240  0.00  0.00     0.000 HD
BRANCH 21 30
ATOM     28   N  SGN C   2     112.451  68.354  26.5430  0.00  0.00     0.000 N
ATOM     30  HD  SGN C   2     113.092  68.577  26.0060  0.00  0.00     0.000 HD
ATOM     30   S  SGN C   2     113.649  68.931  27.4320  0.00  0.00     0.000 S
ATOM     31   O  SGN C   2     114.767  68.096  27.1450  0.00  0.00     0.000 OA
ATOM     32   O  SGN C   2     113.735  70.327  27.2180  0.00  0.00     0.000 OA
ATOM     33   O  SGN C   2     113.162  68.723  28.9070  0.00  0.00     0.000 OA
ENDBRANCH 21 30
BRANCH 24 34
ATOM     34   C  SGN C   2     108.780  64.256  26.6730  0.00  0.00     0.000 C
ATOM     35   O  SGN C   2     108.047  63.686  25.5740  0.00  0.00     0.000 O
ATOM     36   S  SGN C   2     106.618  63.057  25.9040  0.00  0.00     0.000 S
ATOM     37   O  SGN C   2     105.896  64.116  26.5820  0.00  0.00     0.000 OA
ATOM     38   O  SGN C   2     106.046  62.698  24.6280  0.00  0.00     0.000 OA
ATOM     39   O  SGN C   2     106.921  61.924  26.7440  0.00  0.00     0.000 OA
ENDBRANCH 24 34
BRANCH 20 40
ATOM     40  O4  IDS C   3     110.214  67.873  25.3050  0.00  0.00     0.000 O
BRANCH 40 44
ATOM     41  C1  IDS C   3     109.283  69.364  22.2500  0.00  0.00     0.000 C
ATOM     42  C2  IDS C   3     110.524  69.817  23.0130  0.00  0.00     0.000 C
ATOM     43  C3  IDS C   3     110.169  70.135  24.4630  0.00  0.00     0.000 C
ATOM     44  C4  IDS C   3     109.372  69.012  25.1070  0.00  0.00     0.000 C
ATOM     45  C5  IDS C   3     108.182  68.627  24.2040  0.00  0.00     0.000 C
ATOM     46  O5  IDS C   3     108.664  68.262  22.9090  0.00  0.00     0.000 O
ATOM     47   O  IDS C   3     109.424  71.349  24.5130  0.00  0.00     0.000 O
ATOM     49  HD  IDS C   3     110.161  70.905  24.4190  0.00  0.00     0.000 HD
BRANCH 42 49
ATOM     49   O  IDS C   3     111.549  68.748  22.9990  0.00  0.00     0.000 O
ATOM     50   S  IDS C   3     113.083  69.122  22.7270  0.00  0.00     0.000 S
ATOM     51   O  IDS C   3     113.484  69.791  23.9450  0.00  0.00     0.000 OA
ATOM     52   O  IDS C   3     113.170  69.987  21.5620  0.00  0.00     0.000 OA
ATOM     53   O  IDS C   3     113.769  67.864  22.5230  0.00  0.00     0.000 OA
ENDBRANCH 42 49
BRANCH 45 54
ATOM     54   C  IDS C   3     107.352  67.479  24.7570  0.00  0.00     0.000 C
ATOM     55   O  IDS C   3     107.155  66.504  24.0780  0.00  0.00     0.000 OA
ATOM     56   O  IDS C   3     106.877  67.557  25.8730  0.00  0.00     0.000 OA
ENDBRANCH 45 54
BRANCH 41 57
ATOM     57  O4  SGN C   4     108.589  70.466  21.9400  0.00  0.00     0.000 O
BRANCH 57 61
ATOM     58  C1  SGN C   4     105.317  71.533  19.5560  0.00  0.00     0.000 C
ATOM     59  C2  SGN C   4     105.036  70.580  20.7290  0.00  0.00     0.000 C
ATOM     60  C3  SGN C   4     106.187  70.595  21.7430  0.00  0.00     0.000 C
ATOM     61  C4  SGN C   4     107.497  70.304  21.0300  0.00  0.00     0.000 C
ATOM     62  C5  SGN C   4     107.696  71.268  19.8610  0.00  0.00     0.000 C
ATOM     63  O5  SGN C   4     106.569  71.218  18.9650  0.00  0.00     0.000 O
BRANCH 59 66
ATOM     64   N  SGN C   4     103.701  70.968  21.1930  0.00  0.00     0.000 N
ATOM     66  HD  SGN C   4     104.505  70.651  21.1480  0.00  0.00     0.000 HD
ATOM     66   O  SGN C   4     101.390  70.522  21.8240  0.00  0.00     0.000 OA
ATOM     67   O  SGN C   4     102.383  69.361  19.8980  0.00  0.00     0.000 OA
ATOM     68   S  SGN C   4     102.563  69.852  21.3760  0.00  0.00     0.000 S
ATOM     69   O  SGN C   4     103.098  68.791  22.1520  0.00  0.00     0.000 OA
ENDBRANCH 59 66
BRANCH 62 70
ATOM     70   C  SGN C   4     108.921  70.915  19.0550  0.00  0.00     0.000 C
ATOM     71   S  SGN C   4     110.199  68.958  18.0030  0.00  0.00     0.000 S
ATOM     72   O  SGN C   4     110.357  69.732  16.7880  0.00  0.00     0.000 OA
ATOM     73   O  SGN C   4     111.271  69.160  18.9570  0.00  0.00     0.000 OA
ATOM     74   O  SGN C   4     109.886  67.567  17.7650  0.00  0.00     0.000 OA
ATOM     75   O  SGN C   4     108.883  69.533  18.6810  0.00  0.00     0.000 O
ENDBRANCH 62 70
ENDBRANCH 57 61
ENDBRANCH 41 57
ENDBRANCH 40 44
ENDBRANCH 20 40
ENDBRANCH 19 23
ENDBRANCH 1 19
TORSDOF 14
ENDMDL
MODEL 68
REMARK VINA RESULT:      -0.4    111.954    116.293
ROOT
ATOM      1  C1  IDS C   1      15.196 112.581  77.1650  0.00  0.00     0.000 C
ATOM      2  C2  IDS C   1      14.303 113.743  77.5630  0.00  0.00     0.000 C
ATOM      3  C3  IDS C   1      15.119 114.849  78.2220  0.00  0.00     0.000 C
ATOM      4  C4  IDS C   1      16.323 115.233  77.3620  0.00  0.00     0.000 C
ATOM      5  C5  IDS C   1      17.101 113.971  76.9390  0.00  0.00     0.000 C
ATOM      6  O5  IDS C   1      16.232 113.042  76.3000  0.00  0.00     0.000 O
ATOM      7   O  IDS C   1      15.544 114.421  79.5170  0.00  0.00     0.000 O
ATOM      9  HD  IDS C   1      16.168 114.989  79.3230  0.00  0.00     0.000 HD
ATOM      9   O  IDS C   1      15.860 115.923  76.1910  0.00  0.00     0.000 O
ATOM     11  HD  IDS C   1      16.484 116.491  75.9970  0.00  0.00     0.000 HD
ENDROOT
BRANCH 2 11
ATOM     11   O  IDS C   1      13.649 114.318  76.3670  0.00  0.00     0.000 O
ATOM     12   S  IDS C   1      12.057 114.431  76.2860  0.00  0.00     0.000 S
ATOM     13   O  IDS C   1      11.875 115.656  75.5380  0.00  0.00     0.000 OA
ATOM     14   O  IDS C   1      11.514 114.499  77.6210  0.00  0.00     0.000 OA
ATOM     15   O  IDS C   1      11.646 113.252  75.5650  0.00  0.00     0.000 OA
ENDBRANCH 2 11
BRANCH 5 16
ATOM     16   C  IDS C   1      18.246 114.263  75.9870  0.00  0.00     0.000 C
ATOM     17   O  IDS C   1      18.734 115.374  75.9830  0.00  0.00     0.000 OA
ATOM     18   O  IDS C   1      18.655 113.419  75.2380  0.00  0.00     0.000 OA
ENDBRANCH 5 16
BRANCH 1 19
ATOM     19  O4  SGN C   2      15.563 111.696  78.0960  0.00  0.00     0.000 O
BRANCH 19 23
ATOM     20  C1  SGN C   2      16.260 107.660  78.9030  0.00  0.00     0.000 C
ATOM     21  C2  SGN C   2      17.307 108.377  78.0420  0.00  0.00     0.000 C
ATOM     22  C3  SGN C   2      17.157 109.888  78.1990  0.00  0.00     0.000 C
ATOM     23  C4  SGN C   2      15.736 110.302  77.8330  0.00  0.00     0.000 C
ATOM     24  C5  SGN C   2      14.730 109.495  78.6590  0.00  0.00     0.000 C
ATOM     25  O5  SGN C   2      14.974 108.087  78.4850  0.00  0.00     0.000 O
ATOM     26   O  SGN C   2      18.111 110.570  77.3940  0.00  0.00     0.000 O
ATOM     28  HD  SGN C   2      18.763 110.903  76.9320  0.00  0.00     0.000 HD
BRANCH 21 30
ATOM     28   N  SGN C   2      18.302 107.403  78.5110  0.00  0.00     0.000 N
ATOM     30  HD  SGN C   2      19.095 107.693  78.7020  0.00  0.00     0.000 HD
ATOM     30   S  SGN C   2      19.328 106.713  77.4960  0.00  0.00     0.000 S
ATOM     31   O  SGN C   2      19.963 107.789  76.8120  0.00  0.00     0.000 OA
ATOM     32   O  SGN C   2      20.107 105.773  78.2140  0.00  0.00     0.000 OA
ATOM     33   O  SGN C   2      18.410 105.898  76.5220  0.00  0.00     0.000 OA
ENDBRANCH 21 30
BRANCH 24 34
ATOM     34   C  SGN C   2      13.292 109.730  78.2620  0.00  0.00     0.000 C
ATOM     35   O  SGN C   2      12.668 110.577  79.2430  0.00  0.00     0.000 O
ATOM     36   S  SGN C   2      11.073 110.574  79.2950  0.00  0.00     0.000 S
ATOM     37   O  SGN C   2      10.711 109.177  79.4350  0.00  0.00     0.000 OA
ATOM     38   O  SGN C   2      10.719 111.376  80.4420  0.00  0.00     0.000 OA
ATOM     39   O  SGN C   2      10.682 111.157  78.0350  0.00  0.00     0.000 OA
ENDBRANCH 24 34
BRANCH 20 40
ATOM     40  O4  IDS C   3      16.356 107.790  80.2240  0.00  0.00     0.000 O
BRANCH 40 44
ATOM     41  C1  IDS C   3      16.888 107.837  83.7090  0.00  0.00     0.000 C
ATOM     42  C2  IDS C   3      17.967 107.354  82.7440  0.00  0.00     0.000 C
ATOM     43  C3  IDS C   3      17.401 106.292  81.8040  0.00  0.00     0.000 C
ATOM     44  C4  IDS C   3      16.097 106.744  81.1640  0.00  0.00     0.000 C
ATOM     45  C5  IDS C   3      15.126 107.249  82.2510  0.00  0.00     0.000 C
ATOM     46  O5  IDS C   3      15.747 108.302  82.9920  0.00  0.00     0.000 O
ATOM     47   O  IDS C   3      17.194 105.082  82.5270  0.00  0.00     0.000 O
ATOM     49  HD  IDS C   3      17.701 105.665  82.1370  0.00  0.00     0.000 HD
BRANCH 42 49
ATOM     49   O  IDS C   3      18.468 108.487  81.9320  0.00  0.00     0.000 O
ATOM     50   S  IDS C   3      20.046 108.698  81.7540  0.00  0.00     0.000 S
ATOM     51   O  IDS C   3      20.430 107.615  80.8750  0.00  0.00     0.000 OA
ATOM     52   O  IDS C   3      20.694 108.618  83.0530  0.00  0.00     0.000 OA
ATOM     53   O  IDS C   3      20.207 110.001  81.1450  0.00  0.00     0.000 OA
ENDBRANCH 42 49
BRANCH 45 54
ATOM     54   C  IDS C   3      13.807 107.759  81.6910  0.00  0.00     0.000 C
ATOM     55   O  IDS C   3      13.440 108.875  81.9510  0.00  0.00     0.000 OA
ATOM     56   O  IDS C   3      13.122 107.032  80.9980  0.00  0.00     0.000 OA
ENDBRANCH 45 54
BRANCH 41 57
ATOM     57  O4  SGN C   4      16.775 106.909  84.6670  0.00  0.00     0.000 O
BRANCH 57 61
ATOM     58  C1  SGN C   4      14.943 106.489  88.4080  0.00  0.00     0.000 C
ATOM     59  C2  SGN C   4      14.012 106.572  87.1880  0.00  0.00     0.000 C
ATOM     60  C3  SGN C   4      14.780 106.310  85.8850  0.00  0.00     0.000 C
ATOM     61  C4  SGN C   4      15.971 107.250  85.8010  0.00  0.00     0.000 C
ATOM     62  C5  SGN C   4      16.834 107.136  87.0560  0.00  0.00     0.000 C
ATOM     63  O5  SGN C   4      16.045 107.369  88.2380  0.00  0.00     0.000 O
BRANCH 59 66
ATOM     64   N  SGN C   4      12.896 105.663  87.4690  0.00  0.00     0.000 N
ATOM     66  HD  SGN C   4      13.464 106.185  87.0750  0.00  0.00     0.000 HD
ATOM     66   O  SGN C   4      10.542 105.130  87.8010  0.00  0.00     0.000 OA
ATOM     67   O  SGN C   4      11.468 107.216  88.7150  0.00  0.00     0.000 OA
ATOM     68   S  SGN C   4      11.395 106.229  87.4980  0.00  0.00     0.000 S
ATOM     69   O  SGN C   4      11.174 106.975  86.3120  0.00  0.00     0.000 OA
ENDBRANCH 59 66
BRANCH 62 70
ATOM     70   C  SGN C   4      17.948 108.153  87.0580  0.00  0.00     0.000 C
ATOM     71   S  SGN C   4      18.459 110.644  86.7310  0.00  0.00     0.000 S
ATOM     72   O  SGN C   4      19.294 110.614  87.9150  0.00  0.00     0.000 OA
ATOM     73   O  SGN C   4      19.177 110.325  85.5130  0.00  0.00     0.000 OA
ATOM     74   O  SGN C   4      17.641 111.831  86.6300  0.00  0.00     0.000 OA
ATOM     75   O  SGN C   4      17.406 109.475  86.9470  0.00  0.00     0.000 O
ENDBRANCH 62 70
ENDBRANCH 57 61
ENDBRANCH 41 57
ENDBRANCH 40 44
ENDBRANCH 20 40
ENDBRANCH 19 23
ENDBRANCH 1 19
TORSDOF 14
ENDMDL
MODEL 69
REMARK VINA RESULT:      -0.4    119.760    126.706
ROOT
ATOM      1  C1  IDS C   1      87.032  94.311  85.1300  0.00  0.00     0.000 C
ATOM      2  C2  IDS C   1      88.170  94.922  84.3320  0.00  0.00     0.000 C
ATOM      3  C3  IDS C   1      88.146  96.442  84.4320  0.00  0.00     0.000 C
ATOM      4  C4  IDS C   1      88.070  96.898  85.8890  0.00  0.00     0.000 C
ATOM      5  C5  IDS C   1      86.943  96.146  86.6260  0.00  0.00     0.000 C
ATOM      6  O5  IDS C   1      87.110  94.739  86.4890  0.00  0.00     0.000 O
ATOM      7   O  IDS C   1      87.035  96.950  83.6910  0.00  0.00     0.000 O
ATOM      9  HD  IDS C   1      87.135  97.578  84.2790  0.00  0.00     0.000 HD
ATOM      9   O  IDS C   1      89.325  96.622  86.5300  0.00  0.00     0.000 O
ATOM     11  HD  IDS C   1      89.424  97.249  87.1190  0.00  0.00     0.000 HD
ENDROOT
BRANCH 2 11
ATOM     11   O  IDS C   1      89.472  94.457  84.8610  0.00  0.00     0.000 O
ATOM     12   S  IDS C   1      90.429  93.535  83.9730  0.00  0.00     0.000 S
ATOM     13   O  IDS C   1      91.744  93.982  84.3750  0.00  0.00     0.000 OA
ATOM     14   O  IDS C   1      90.157  93.770  82.5760  0.00  0.00     0.000 OA
ATOM     15   O  IDS C   1      90.127  92.189  84.3920  0.00  0.00     0.000 OA
ENDBRANCH 2 11
BRANCH 5 16
ATOM     16   C  IDS C   1      86.881  96.463  88.1090  0.00  0.00     0.000 C
ATOM     17   O  IDS C   1      86.044  95.909  88.7900  0.00  0.00     0.000 OA
ATOM     18   O  IDS C   1      87.633  97.258  88.6010  0.00  0.00     0.000 OA
ENDBRANCH 5 16
BRANCH 1 19
ATOM     19  O4  SGN C   2      85.807  94.283  84.5960  0.00  0.00     0.000 O
BRANCH 19 23
ATOM     20  C1  SGN C   2      82.219  92.164  84.3580  0.00  0.00     0.000 C
ATOM     21  C2  SGN C   2      82.505  92.878  85.6840  0.00  0.00     0.000 C
ATOM     22  C3  SGN C   2      83.589  93.933  85.4780  0.00  0.00     0.000 C
ATOM     23  C4  SGN C   2      84.839  93.278  84.9010  0.00  0.00     0.000 C
ATOM     24  C5  SGN C   2      84.481  92.507  83.6270  0.00  0.00     0.000 C
ATOM     25  O5  SGN C   2      83.424  91.570  83.9050  0.00  0.00     0.000 O
ATOM     26   O  SGN C   2      83.879  94.595  86.7030  0.00  0.00     0.000 O
ATOM     28  HD  SGN C   2      83.946  94.993  87.4700  0.00  0.00     0.000 HD
BRANCH 21 30
ATOM     28   N  SGN C   2      81.070  93.045  85.9510  0.00  0.00     0.000 N
ATOM     30  HD  SGN C   2      80.816  93.758  86.3710  0.00  0.00     0.000 HD
ATOM     30   S  SGN C   2      80.427  92.585  87.3420  0.00  0.00     0.000 S
ATOM     31   O  SGN C   2      81.202  93.231  88.3470  0.00  0.00     0.000 OA
ATOM     32   O  SGN C   2      79.028  92.797  87.2820  0.00  0.00     0.000 OA
ATOM     33   O  SGN C   2      80.654  91.035  87.3720  0.00  0.00     0.000 OA
ENDBRANCH 21 30
BRANCH 24 34
ATOM     34   C  SGN C   2      85.628  91.701  83.0630  0.00  0.00     0.000 C
ATOM     35   O  SGN C   2      86.165  92.389  81.9200  0.00  0.00     0.000 O
ATOM     36   S  SGN C   2      87.041  91.528  80.9010  0.00  0.00     0.000 S
ATOM     37   O  SGN C   2      86.196  90.405  80.5450  0.00  0.00     0.000 OA
ATOM     38   O  SGN C   2      87.324  92.407  79.7920  0.00  0.00     0.000 OA
ATOM     39   O  SGN C   2      88.208  91.163  81.6660  0.00  0.00     0.000 OA
ENDBRANCH 24 34
BRANCH 20 40
ATOM     40  O4  IDS C   3      81.689  92.885  83.3720  0.00  0.00     0.000 O
BRANCH 40 44
ATOM     41  C1  IDS C   3      79.903  94.739  80.9640  0.00  0.00     0.000 C
ATOM     42  C2  IDS C   3      79.378  94.562  82.3850  0.00  0.00     0.000 C
ATOM     43  C3  IDS C   3      79.361  93.084  82.7650  0.00  0.00     0.000 C
ATOM     44  C4  IDS C   3      80.691  92.410  82.4650  0.00  0.00     0.000 C
ATOM     45  C5  IDS C   3      81.119  92.716  81.0140  0.00  0.00     0.000 C
ATOM     46  O5  IDS C   3      81.185  94.130  80.8250  0.00  0.00     0.000 O
ATOM     47   O  IDS C   3      78.313  92.425  82.0590  0.00  0.00     0.000 O
ATOM     49  HD  IDS C   3      78.607  92.947  82.6840  0.00  0.00     0.000 HD
BRANCH 42 49
ATOM     49   O  IDS C   3      80.244  95.288  83.3430  0.00  0.00     0.000 O
ATOM     50   S  IDS C   3      79.583  96.258  84.4340  0.00  0.00     0.000 S
ATOM     51   O  IDS C   3      78.958  95.340  85.3600  0.00  0.00     0.000 OA
ATOM     52   O  IDS C   3      78.623  97.134  83.7830  0.00  0.00     0.000 OA
ATOM     53   O  IDS C   3      80.679  96.996  85.0250  0.00  0.00     0.000 OA
ENDBRANCH 42 49
BRANCH 45 54
ATOM     54   C  IDS C   3      82.463  92.110  80.6430  0.00  0.00     0.000 C
ATOM     55   O  IDS C   3      82.637  90.925  80.7620  0.00  0.00     0.000 OA
ATOM     56   O  IDS C   3      83.361  92.825  80.2440  0.00  0.00     0.000 OA
ENDBRANCH 45 54
BRANCH 41 57
ATOM     57  O4  SGN C   4      78.898  94.437  80.1340  0.00  0.00     0.000 O
BRANCH 57 61
ATOM     58  C1  SGN C   4      78.224  94.174  76.0100  0.00  0.00     0.000 C
ATOM     59  C2  SGN C   4      79.324  93.270  76.5900  0.00  0.00     0.000 C
ATOM     60  C3  SGN C   4      79.197  93.150  78.1140  0.00  0.00     0.000 C
ATOM     61  C4  SGN C   4      79.169  94.538  78.7320  0.00  0.00     0.000 C
ATOM     62  C5  SGN C   4      78.074  95.389  78.0900  0.00  0.00     0.000 C
ATOM     63  O5  SGN C   4      78.243  95.437  76.6600  0.00  0.00     0.000 O
BRANCH 59 66
ATOM     64   N  SGN C   4      79.237  92.043  75.7910  0.00  0.00     0.000 N
ATOM     66  HD  SGN C   4      79.394  92.614  76.4230  0.00  0.00     0.000 HD
ATOM     66   O  SGN C   4      80.162  90.271  74.3990  0.00  0.00     0.000 OA
ATOM     67   O  SGN C   4      80.925  92.589  74.1020  0.00  0.00     0.000 OA
ATOM     68   S  SGN C   4      80.557  91.442  75.1060  0.00  0.00     0.000 S
ATOM     69   O  SGN C   4      81.572  91.350  76.0930  0.00  0.00     0.000 OA
ENDBRANCH 59 66
BRANCH 62 70
ATOM     70   C  SGN C   4      78.113  96.811  78.5890  0.00  0.00     0.000 C
ATOM     71   S  SGN C   4      79.693  98.737  79.1950  0.00  0.00     0.000 S
ATOM     72   O  SGN C   4      78.837  99.650  78.4640  0.00  0.00     0.000 OA
ATOM     73   O  SGN C   4      79.319  98.590  80.5880  0.00  0.00     0.000 OA
ATOM     74   O  SGN C   4      81.103  98.979  78.9930  0.00  0.00     0.000 OA
ATOM     75   O  SGN C   4      79.449  97.322  78.5160  0.00  0.00     0.000 O
ENDBRANCH 62 70
ENDBRANCH 57 61
ENDBRANCH 41 57
ENDBRANCH 40 44
ENDBRANCH 20 40
ENDBRANCH 19 23
ENDBRANCH 1 19
TORSDOF 14
ENDMDL
MODEL 70
REMARK VINA RESULT:      -0.4     66.568     71.523
ROOT
ATOM      1  C1  IDS C   1      65.933   7.618  62.6520  0.00  0.00     0.000 C
ATOM      2  C2  IDS C   1      66.170   6.301  63.3690  0.00  0.00     0.000 C
ATOM      3  C3  IDS C   1      66.115   6.491  64.8800  0.00  0.00     0.000 C
ATOM      4  C4  IDS C   1      64.841   7.226  65.2980  0.00  0.00     0.000 C
ATOM      5  C5  IDS C   1      64.653   8.495  64.4420  0.00  0.00     0.000 C
ATOM      6  O5  IDS C   1      64.681   8.170  63.0560  0.00  0.00     0.000 O
ATOM      7   O  IDS C   1      67.272   7.209  65.3120  0.00  0.00     0.000 O
ATOM      9  HD  IDS C   1      66.708   7.425  65.9330  0.00  0.00     0.000 HD
ATOM      9   O  IDS C   1      63.716   6.354  65.1100  0.00  0.00     0.000 O
ATOM     11  HD  IDS C   1      63.152   6.570  65.7310  0.00  0.00     0.000 HD
ENDROOT
BRANCH 2 11
ATOM     11   O  IDS C   1      65.123   5.323  63.0000  0.00  0.00     0.000 O
ATOM     12   S  IDS C   1      65.484   4.035  62.1250  0.00  0.00     0.000 S
ATOM     13   O  IDS C   1      64.586   3.037  62.6640  0.00  0.00     0.000 OA
ATOM     14   O  IDS C   1      66.875   3.703  62.3150  0.00  0.00     0.000 OA
ATOM     15   O  IDS C   1      65.171   4.418  60.7710  0.00  0.00     0.000 OA
ENDBRANCH 2 11
BRANCH 5 16
ATOM     16   C  IDS C   1      63.347   9.218  64.7210  0.00  0.00     0.000 C
ATOM     17   O  IDS C   1      62.624   8.800  65.6000  0.00  0.00     0.000 OA
ATOM     18   O  IDS C   1      63.025  10.176  64.0750  0.00  0.00     0.000 OA
ENDBRANCH 5 16
BRANCH 1 19
ATOM     19  O4  SGN C   2      66.944   8.485  62.5360  0.00  0.00     0.000 O
BRANCH 19 23
ATOM     20  C1  SGN C   2      68.640  11.484  60.1790  0.00  0.00     0.000 C
ATOM     21  C2  SGN C   2      67.320  11.828  60.8790  0.00  0.00     0.000 C
ATOM     22  C3  SGN C   2      67.063  10.837  62.0110  0.00  0.00     0.000 C
ATOM     23  C4  SGN C   2      67.063   9.416  61.4590  0.00  0.00     0.000 C
ATOM     24  C5  SGN C   2      68.364   9.154  60.6960  0.00  0.00     0.000 C
ATOM     25  O5  SGN C   2      68.545  10.159  59.6810  0.00  0.00     0.000 O
ATOM     26   O  SGN C   2      65.833  11.132  62.6620  0.00  0.00     0.000 O
ATOM     28  HD  SGN C   2      65.111  11.419  63.0450  0.00  0.00     0.000 HD
BRANCH 21 30
ATOM     28   N  SGN C   2      67.630  13.256  61.0230  0.00  0.00     0.000 N
ATOM     30  HD  SGN C   2      67.267  13.686  61.6820  0.00  0.00     0.000 HD
ATOM     30   S  SGN C   2      66.675  14.379  60.4010  0.00  0.00     0.000 S
ATOM     31   O  SGN C   2      65.377  14.094  60.9120  0.00  0.00     0.000 OA
ATOM     32   O  SGN C   2      67.264  15.646  60.6310  0.00  0.00     0.000 OA
ATOM     33   O  SGN C   2      66.737  14.119  58.8580  0.00  0.00     0.000 OA
ENDBRANCH 21 30
BRANCH 24 34
ATOM     34   C  SGN C   2      68.394   7.821  59.9860  0.00  0.00     0.000 C
ATOM     35   O  SGN C   2      69.207   6.907  60.7420  0.00  0.00     0.000 O
ATOM     36   S  SGN C   2      69.764   5.624  59.9730  0.00  0.00     0.000 S
ATOM     37   O  SGN C   2      70.440   6.158  58.8070  0.00  0.00     0.000 OA
ATOM     38   O  SGN C   2      70.652   4.968  60.9010  0.00  0.00     0.000 OA
ATOM     39   O  SGN C   2      68.579   4.862  59.6640  0.00  0.00     0.000 OA
ENDBRANCH 24 34
BRANCH 20 40
ATOM     40  O4  IDS C   3      69.761  11.607  60.8850  0.00  0.00     0.000 O
BRANCH 40 44
ATOM     41  C1  IDS C   3      72.750  12.236  62.6460  0.00  0.00     0.000 C
ATOM     42  C2  IDS C   3      71.695  13.321  62.4510  0.00  0.00     0.000 C
ATOM     43  C3  IDS C   3      71.325  13.444  60.9750  0.00  0.00     0.000 C
ATOM     44  C4  IDS C   3      71.001  12.091  60.3610  0.00  0.00     0.000 C
ATOM     45  C5  IDS C   3      72.128  11.086  60.6800  0.00  0.00     0.000 C
ATOM     46  O5  IDS C   3      72.303  11.000  62.0960  0.00  0.00     0.000 O
ATOM     47   O  IDS C   3      72.402  14.053  60.2660  0.00  0.00     0.000 O
ATOM     49  HD  IDS C   3      71.723  14.081  60.8040  0.00  0.00     0.000 HD
BRANCH 42 49
ATOM     49   O  IDS C   3      70.473  12.988  63.2190  0.00  0.00     0.000 O
ATOM     50   S  IDS C   3      69.738  14.126  64.0750  0.00  0.00     0.000 S
ATOM     51   O  IDS C   3      69.136  14.966  63.0640  0.00  0.00     0.000 OA
ATOM     52   O  IDS C   3      70.720  14.836  64.8780  0.00  0.00     0.000 OA
ATOM     53   O  IDS C   3      68.761  13.440  64.8930  0.00  0.00     0.000 OA
ENDBRANCH 42 49
BRANCH 45 54
ATOM     54   C  IDS C   3      71.863   9.691  60.1350  0.00  0.00     0.000 C
ATOM     55   O  IDS C   3      71.845   8.751  60.8860  0.00  0.00     0.000 OA
ATOM     56   O  IDS C   3      71.687   9.529  58.9430  0.00  0.00     0.000 OA
ENDBRANCH 45 54
BRANCH 41 57
ATOM     57  O4  SGN C   4      73.927  12.767  62.2950  0.00  0.00     0.000 O
BRANCH 57 61
ATOM     58  C1  SGN C   4      77.992  11.799  62.5520  0.00  0.00     0.000 C
ATOM     59  C2  SGN C   4      77.120  10.892  61.6680  0.00  0.00     0.000 C
ATOM     60  C3  SGN C   4      75.785  11.568  61.3280  0.00  0.00     0.000 C
ATOM     61  C4  SGN C   4      75.096  12.004  62.6100  0.00  0.00     0.000 C
ATOM     62  C5  SGN C   4      76.028  12.875  63.4510  0.00  0.00     0.000 C
ATOM     63  O5  SGN C   4      77.268  12.188  63.7090  0.00  0.00     0.000 O
BRANCH 59 66
ATOM     64   N  SGN C   4      78.009  10.515  60.5640  0.00  0.00     0.000 N
ATOM     66  HD  SGN C   4      77.312  10.684  61.0490  0.00  0.00     0.000 HD
ATOM     66   O  SGN C   4      79.091   8.916  59.0780  0.00  0.00     0.000 OA
ATOM     67   O  SGN C   4      78.819   8.385  61.4630  0.00  0.00     0.000 OA
ATOM     68   S  SGN C   4      78.169   8.970  60.1610  0.00  0.00     0.000 S
ATOM     69   O  SGN C   4      76.874   8.413  60.0020  0.00  0.00     0.000 OA
ENDBRANCH 59 66
BRANCH 62 70
ATOM     70   C  SGN C   4      75.418  13.209  64.7890  0.00  0.00     0.000 C
ATOM     71   S  SGN C   4      74.186  12.201  66.7980  0.00  0.00     0.000 S
ATOM     72   O  SGN C   4      75.063  12.937  67.6870  0.00  0.00     0.000 OA
ATOM     73   O  SGN C   4      72.997  12.938  66.4240  0.00  0.00     0.000 OA
ATOM     74   O  SGN C   4      73.921  10.850  67.2380  0.00  0.00     0.000 OA
ATOM     75   O  SGN C   4      75.029  12.008  65.4660  0.00  0.00     0.000 O
ENDBRANCH 62 70
ENDBRANCH 57 61
ENDBRANCH 41 57
ENDBRANCH 40 44
ENDBRANCH 20 40
ENDBRANCH 19 23
ENDBRANCH 1 19
TORSDOF 14
ENDMDL
MODEL 71
REMARK VINA RESULT:      -0.4     97.227    101.311
ROOT
ATOM      1  C1  IDS C   1     103.652   6.993  62.2930  0.00  0.00     0.000 C
ATOM      2  C2  IDS C   1     102.504   6.000  62.2960  0.00  0.00     0.000 C
ATOM      3  C3  IDS C   1     103.017   4.582  62.5160  0.00  0.00     0.000 C
ATOM      4  C4  IDS C   1     103.930   4.508  63.7400  0.00  0.00     0.000 C
ATOM      5  C5  IDS C   1     104.997   5.619  63.6770  0.00  0.00     0.000 C
ATOM      6  O5  IDS C   1     104.382   6.893  63.5150  0.00  0.00     0.000 O
ATOM      7   O  IDS C   1     103.711   4.140  61.3470  0.00  0.00     0.000 O
ATOM      9  HD  IDS C   1     104.102   3.664  61.9560  0.00  0.00     0.000 HD
ATOM      9   O  IDS C   1     103.136   4.676  64.9250  0.00  0.00     0.000 O
ATOM     11  HD  IDS C   1     103.527   4.200  65.5330  0.00  0.00     0.000 HD
ENDROOT
BRANCH 2 11
ATOM     11   O  IDS C   1     101.562   6.311  63.3940  0.00  0.00     0.000 O
ATOM     12   S  IDS C   1     100.067   6.777  63.0750  0.00  0.00     0.000 S
ATOM     13   O  IDS C   1      99.323   6.190  64.1680  0.00  0.00     0.000 OA
ATOM     14   O  IDS C   1      99.671   6.265  61.7850  0.00  0.00     0.000 OA
ATOM     15   O  IDS C   1     100.117   8.217  63.1230  0.00  0.00     0.000 OA
ENDBRANCH 2 11
BRANCH 5 16
ATOM     16   C  IDS C   1     105.871   5.682  64.9170  0.00  0.00     0.000 C
ATOM     17   O  IDS C   1     106.726   6.539  64.9860  0.00  0.00     0.000 OA
ATOM     18   O  IDS C   1     105.732   4.891  65.8080  0.00  0.00     0.000 OA
ENDBRANCH 5 16
BRANCH 1 19
ATOM     19  O4  SGN C   2     104.385   7.134  61.1850  0.00  0.00     0.000 O
BRANCH 19 23
ATOM     20  C1  SGN C   2     106.595   9.796  58.8490  0.00  0.00     0.000 C
ATOM     21  C2  SGN C   2     107.213   9.388  60.1920  0.00  0.00     0.000 C
ATOM     22  C3  SGN C   2     106.534   8.122  60.7080  0.00  0.00     0.000 C
ATOM     23  C4  SGN C   2     105.031   8.355  60.8180  0.00  0.00     0.000 C
ATOM     24  C5  SGN C   2     104.481   8.844  59.4760  0.00  0.00     0.000 C
ATOM     25  O5  SGN C   2     105.207  10.010  59.0470  0.00  0.00     0.000 O
ATOM     26   O  SGN C   2     107.084   7.737  61.9620  0.00  0.00     0.000 O
ATOM     28  HD  SGN C   2     107.518   7.535  62.6840  0.00  0.00     0.000 HD
BRANCH 21 30
ATOM     28   N  SGN C   2     108.562   9.607  59.6540  0.00  0.00     0.000 N
ATOM     30  HD  SGN C   2     109.194   9.075  59.9150  0.00  0.00     0.000 HD
ATOM     30   S  SGN C   2     109.638  10.485  60.4470  0.00  0.00     0.000 S
ATOM     31   O  SGN C   2     109.705   9.913  61.7500  0.00  0.00     0.000 OA
ATOM     32   O  SGN C   2     110.809  10.582  59.6570  0.00  0.00     0.000 OA
ATOM     33   O  SGN C   2     109.000  11.915  60.4980  0.00  0.00     0.000 OA
ENDBRANCH 21 30
BRANCH 24 34
ATOM     34   C  SGN C   2     103.025   9.243  59.5260  0.00  0.00     0.000 C
ATOM     35   O  SGN C   2     102.230   8.181  58.9690  0.00  0.00     0.000 O
ATOM     36   S  SGN C   2     100.754   8.555  58.4880  0.00  0.00     0.000 S
ATOM     37   O  SGN C   2     100.935   9.670  57.5790  0.00  0.00     0.000 OA
ATOM     38   O  SGN C   2     100.241   7.369  57.8470  0.00  0.00     0.000 OA
ATOM     39   O  SGN C   2     100.067   8.901  59.7080  0.00  0.00     0.000 OA
ENDBRANCH 24 34
BRANCH 20 40
ATOM     40  O4  IDS C   3     106.769   8.975  57.8170  0.00  0.00     0.000 O
BRANCH 40 44
ATOM     41  C1  IDS C   3     107.604   6.967  55.0420  0.00  0.00     0.000 C
ATOM     42  C2  IDS C   3     108.677   7.557  55.9520  0.00  0.00     0.000 C
ATOM     43  C3  IDS C   3     108.473   9.061  56.1090  0.00  0.00     0.000 C
ATOM     44  C4  IDS C   3     107.037   9.399  56.4780  0.00  0.00     0.000 C
ATOM     45  C5  IDS C   3     106.066   8.697  55.5050  0.00  0.00     0.000 C
ATOM     46  O5  IDS C   3     106.304   7.288  55.5290  0.00  0.00     0.000 O
ATOM     47   O  IDS C   3     108.829   9.717  54.8940  0.00  0.00     0.000 O
ATOM     49  HD  IDS C   3     109.026   9.308  55.6320  0.00  0.00     0.000 HD
BRANCH 42 49
ATOM     49   O  IDS C   3     108.611   6.927  57.2920  0.00  0.00     0.000 O
ATOM     50   S  IDS C   3     109.953   6.390  57.9830  0.00  0.00     0.000 S
ATOM     51   O  IDS C   3     110.649   7.604  58.3490  0.00  0.00     0.000 OA
ATOM     52   O  IDS C   3     110.699   5.585  57.0300  0.00  0.00     0.000 OA
ATOM     53   O  IDS C   3     109.527   5.618  59.1310  0.00  0.00     0.000 OA
ENDBRANCH 42 49
BRANCH 45 54
ATOM     54   C  IDS C   3     104.602   8.951  55.8280  0.00  0.00     0.000 C
ATOM     55   O  IDS C   3     103.868   8.020  56.0440  0.00  0.00     0.000 OA
ATOM     56   O  IDS C   3     104.173  10.088  55.8510  0.00  0.00     0.000 OA
ENDBRANCH 45 54
BRANCH 41 57
ATOM     57  O4  SGN C   4     107.963   7.245  53.7830  0.00  0.00     0.000 O
BRANCH 57 61
ATOM     58  C1  SGN C   4     106.918   6.056  49.9070  0.00  0.00     0.000 C
ATOM     59  C2  SGN C   4     105.789   6.621  50.7840  0.00  0.00     0.000 C
ATOM     60  C3  SGN C   4     106.354   7.385  51.9900  0.00  0.00     0.000 C
ATOM     61  C4  SGN C   4     107.319   6.492  52.7500  0.00  0.00     0.000 C
ATOM     62  C5  SGN C   4     108.394   5.943  51.8130  0.00  0.00     0.000 C
ATOM     63  O5  SGN C   4     107.793   5.262  50.6950  0.00  0.00     0.000 O
BRANCH 59 66
ATOM     64   N  SGN C   4     104.934   7.357  49.8470  0.00  0.00     0.000 N
ATOM     66  HD  SGN C   4     105.330   7.071  50.5620  0.00  0.00     0.000 HD
ATOM     66   O  SGN C   4     102.803   7.909  48.8050  0.00  0.00     0.000 OA
ATOM     67   O  SGN C   4     103.344   5.568  49.3260  0.00  0.00     0.000 OA
ATOM     68   S  SGN C   4     103.358   7.061  49.8050  0.00  0.00     0.000 S
ATOM     69   O  SGN C   4     102.855   7.125  51.1300  0.00  0.00     0.000 OA
ENDBRANCH 59 66
BRANCH 62 70
ATOM     70   C  SGN C   4     109.285   4.948  52.5130  0.00  0.00     0.000 C
ATOM     71   S  SGN C   4     109.328   2.613  53.5690  0.00  0.00     0.000 S
ATOM     72   O  SGN C   4     110.576   2.341  52.8830  0.00  0.00     0.000 OA
ATOM     73   O  SGN C   4     109.511   3.219  54.8730  0.00  0.00     0.000 OA
ATOM     74   O  SGN C   4     108.414   1.494  53.5700  0.00  0.00     0.000 OA
ATOM     75   O  SGN C   4     108.600   3.700  52.6700  0.00  0.00     0.000 O
ENDBRANCH 62 70
ENDBRANCH 57 61
ENDBRANCH 41 57
ENDBRANCH 40 44
ENDBRANCH 20 40
ENDBRANCH 19 23
ENDBRANCH 1 19
TORSDOF 14
ENDMDL
MODEL 72
REMARK VINA RESULT:      -0.4     75.361     80.878
ROOT
ATOM      1  C1  IDS C   1      72.951  64.214  14.3930  0.00  0.00     0.000 C
ATOM      2  C2  IDS C   1      73.178  65.707  14.2300  0.00  0.00     0.000 C
ATOM      3  C3  IDS C   1      73.566  66.342  15.5600  0.00  0.00     0.000 C
ATOM      4  C4  IDS C   1      74.721  65.588  16.2170  0.00  0.00     0.000 C
ATOM      5  C5  IDS C   1      74.424  64.075  16.2430  0.00  0.00     0.000 C
ATOM      6  O5  IDS C   1      74.121  63.604  14.9340  0.00  0.00     0.000 O
ATOM      7   O  IDS C   1      72.429  66.367  16.4250  0.00  0.00     0.000 O
ATOM      9  HD  IDS C   1      73.071  66.351  17.0050  0.00  0.00     0.000 HD
ATOM      9   O  IDS C   1      75.921  65.824  15.4640  0.00  0.00     0.000 O
ATOM     11  HD  IDS C   1      76.563  65.807  16.0440  0.00  0.00     0.000 HD
ENDROOT
BRANCH 2 11
ATOM     11   O  IDS C   1      74.281  65.954  13.2750  0.00  0.00     0.000 O
ATOM     12   S  IDS C   1      73.990  66.615  11.8490  0.00  0.00     0.000 S
ATOM     13   O  IDS C   1      75.180  67.408  11.6300  0.00  0.00     0.000 OA
ATOM     14   O  IDS C   1      72.789  67.410  11.9270  0.00  0.00     0.000 OA
ATOM     15   O  IDS C   1      73.873  65.495  10.9480  0.00  0.00     0.000 OA
ENDBRANCH 2 11
BRANCH 5 16
ATOM     16   C  IDS C   1      75.578  63.246  16.7780  0.00  0.00     0.000 C
ATOM     17   O  IDS C   1      75.459  62.040  16.8260  0.00  0.00     0.000 OA
ATOM     18   O  IDS C   1      76.587  63.771  17.1620  0.00  0.00     0.000 OA
ENDBRANCH 5 16
BRANCH 1 19
ATOM     19  O4  SGN C   2      71.786  63.785  14.8870  0.00  0.00     0.000 O
BRANCH 19 23
ATOM     20  C1  SGN C   2      68.971  60.703  14.8490  0.00  0.00     0.000 C
ATOM     21  C2  SGN C   2      70.304  60.404  15.5460  0.00  0.00     0.000 C
ATOM     22  C3  SGN C   2      71.026  61.712  15.8590  0.00  0.00     0.000 C
ATOM     23  C4  SGN C   2      71.221  62.511  14.5750  0.00  0.00     0.000 C
ATOM     24  C5  SGN C   2      69.873  62.705  13.8750  0.00  0.00     0.000 C
ATOM     25  O5  SGN C   2      69.246  61.427  13.6610  0.00  0.00     0.000 O
ATOM     26   O  SGN C   2      72.273  61.453  16.4940  0.00  0.00     0.000 O
ATOM     28  HD  SGN C   2      72.979  61.213  16.9340  0.00  0.00     0.000 HD
BRANCH 21 30
ATOM     28   N  SGN C   2      69.707  59.468  16.5070  0.00  0.00     0.000 N
ATOM     30  HD  SGN C   2      70.084  59.387  17.2830  0.00  0.00     0.000 HD
ATOM     30   S  SGN C   2      70.233  57.962  16.6350  0.00  0.00     0.000 S
ATOM     31   O  SGN C   2      71.637  58.072  16.8480  0.00  0.00     0.000 OA
ATOM     32   O  SGN C   2      69.425  57.283  17.5780  0.00  0.00     0.000 OA
ATOM     33   O  SGN C   2      69.929  57.333  15.2330  0.00  0.00     0.000 OA
ENDBRANCH 21 30
BRANCH 24 34
ATOM     34   C  SGN C   2      69.983  63.359  12.5180  0.00  0.00     0.000 C
ATOM     35   O  SGN C   2      69.579  64.735  12.6270  0.00  0.00     0.000 O
ATOM     36   S  SGN C   2      69.164  65.479  11.2770  0.00  0.00     0.000 S
ATOM     37   O  SGN C   2      68.148  64.631  10.6860  0.00  0.00     0.000 OA
ATOM     38   O  SGN C   2      68.669  66.772  11.6810  0.00  0.00     0.000 OA
ATOM     39   O  SGN C   2      70.391  65.536  10.5200  0.00  0.00     0.000 OA
ENDBRANCH 24 34
BRANCH 20 40
ATOM     40  O4  IDS C   3      68.041  61.347  15.5490  0.00  0.00     0.000 O
BRANCH 40 44
ATOM     41  C1  IDS C   3      65.496  62.617  17.6310  0.00  0.00     0.000 C
ATOM     42  C2  IDS C   3      66.237  61.328  17.9730  0.00  0.00     0.000 C
ATOM     43  C3  IDS C   3      66.211  60.370  16.7840  0.00  0.00     0.000 C
ATOM     44  C4  IDS C   3      66.641  61.057  15.4980  0.00  0.00     0.000 C
ATOM     45  C5  IDS C   3      65.846  62.366  15.3100  0.00  0.00     0.000 C
ATOM     46  O5  IDS C   3      66.035  63.206  16.4510  0.00  0.00     0.000 O
ATOM     47   O  IDS C   3      64.897  59.837  16.6340  0.00  0.00     0.000 O
ATOM     49  HD  IDS C   3      65.665  59.886  17.0320  0.00  0.00     0.000 HD
BRANCH 42 49
ATOM     49   O  IDS C   3      67.648  61.625  18.3120  0.00  0.00     0.000 O
ATOM     50   S  IDS C   3      68.257  61.106  19.6990  0.00  0.00     0.000 S
ATOM     51   O  IDS C   3      68.379  59.679  19.4970  0.00  0.00     0.000 OA
ATOM     52   O  IDS C   3      67.346  61.440  20.7820  0.00  0.00     0.000 OA
ATOM     53   O  IDS C   3      69.537  61.766  19.8430  0.00  0.00     0.000 OA
ENDBRANCH 42 49
BRANCH 45 54
ATOM     54   C  IDS C   3      66.244  63.140  14.0630  0.00  0.00     0.000 C
ATOM     55   O  IDS C   3      66.630  64.275  14.1630  0.00  0.00     0.000 OA
ATOM     56   O  IDS C   3      66.156  62.615  12.9700  0.00  0.00     0.000 OA
ENDBRANCH 45 54
BRANCH 41 57
ATOM     57  O4  SGN C   4      64.187  62.359  17.7430  0.00  0.00     0.000 O
BRANCH 57 61
ATOM     58  C1  SGN C   4      60.574  64.450  17.4230  0.00  0.00     0.000 C
ATOM     59  C2  SGN C   4      61.254  64.038  16.1070  0.00  0.00     0.000 C
ATOM     60  C3  SGN C   4      62.312  62.953  16.3460  0.00  0.00     0.000 C
ATOM     61  C4  SGN C   4      63.291  63.423  17.4080  0.00  0.00     0.000 C
ATOM     62  C5  SGN C   4      62.547  63.843  18.6750  0.00  0.00     0.000 C
ATOM     63  O5  SGN C   4      61.555  64.843  18.3720  0.00  0.00     0.000 O
BRANCH 59 66
ATOM     64   N  SGN C   4      60.141  63.721  15.2060  0.00  0.00     0.000 N
ATOM     66  HD  SGN C   4      60.921  63.766  15.5800  0.00  0.00     0.000 HD
ATOM     66   O  SGN C   4      58.887  63.920  13.1270  0.00  0.00     0.000 OA
ATOM     67   O  SGN C   4      59.890  65.917  14.1510  0.00  0.00     0.000 OA
ATOM     68   S  SGN C   4      60.065  64.409  13.7590  0.00  0.00     0.000 S
ATOM     69   O  SGN C   4      61.320  64.242  13.1180  0.00  0.00     0.000 OA
ENDBRANCH 59 66
BRANCH 62 70
ATOM     70   C  SGN C   4      63.482  64.440  19.6960  0.00  0.00     0.000 C
ATOM     71   S  SGN C   4      65.431  66.079  19.9910  0.00  0.00     0.000 S
ATOM     72   O  SGN C   4      64.770  66.634  21.1550  0.00  0.00     0.000 OA
ATOM     73   O  SGN C   4      66.305  64.966  20.3030  0.00  0.00     0.000 OA
ATOM     74   O  SGN C   4      66.040  67.077  19.1420  0.00  0.00     0.000 OA
ATOM     75   O  SGN C   4      64.256  65.488  19.1010  0.00  0.00     0.000 O
ENDBRANCH 62 70
ENDBRANCH 57 61
ENDBRANCH 41 57
ENDBRANCH 40 44
ENDBRANCH 20 40
ENDBRANCH 19 23
ENDBRANCH 1 19
TORSDOF 14
ENDMDL
MODEL 73
REMARK VINA RESULT:      -0.4    140.741    144.404
ROOT
ATOM      1  C1  IDS C   1     112.819  82.184  93.2810  0.00  0.00     0.000 C
ATOM      2  C2  IDS C   1     113.252  83.329  92.3830  0.00  0.00     0.000 C
ATOM      3  C3  IDS C   1     114.397  84.110  93.0160  0.00  0.00     0.000 C
ATOM      4  C4  IDS C   1     115.527  83.176  93.4510  0.00  0.00     0.000 C
ATOM      5  C5  IDS C   1     114.961  82.003  94.2760  0.00  0.00     0.000 C
ATOM      6  O5  IDS C   1     113.933  81.335  93.5530  0.00  0.00     0.000 O
ATOM      7   O  IDS C   1     113.906  84.855  94.1320  0.00  0.00     0.000 O
ATOM      9  HD  IDS C   1     114.733  84.747  94.3630  0.00  0.00     0.000 HD
ATOM      9   O  IDS C   1     116.185  82.664  92.2830  0.00  0.00     0.000 O
ATOM     11  HD  IDS C   1     117.013  82.556  92.5140  0.00  0.00     0.000 HD
ENDROOT
BRANCH 2 11
ATOM     11   O  IDS C   1     113.729  82.806  91.0830  0.00  0.00     0.000 O
ATOM     12   S  IDS C   1     113.011  83.235  89.7210  0.00  0.00     0.000 S
ATOM     13   O  IDS C   1     114.118  83.273  88.7900  0.00  0.00     0.000 OA
ATOM     14   O  IDS C   1     112.379  84.520  89.8970  0.00  0.00     0.000 OA
ATOM     15   O  IDS C   1     112.073  82.173  89.4550  0.00  0.00     0.000 OA
ENDBRANCH 2 11
BRANCH 5 16
ATOM     16   C  IDS C   1     116.010  80.970  94.6470  0.00  0.00     0.000 C
ATOM     17   O  IDS C   1     116.354  80.160  93.8130  0.00  0.00     0.000 OA
ATOM     18   O  IDS C   1     116.482  80.942  95.7500  0.00  0.00     0.000 OA
ENDBRANCH 5 16
BRANCH 1 19
ATOM     19  O4  SGN C   2     112.014  82.440  94.3160  0.00  0.00     0.000 O
BRANCH 19 23
ATOM     20  C1  SGN C   2     108.769  81.062  96.5520  0.00  0.00     0.000 C
ATOM     21  C2  SGN C   2     110.113  80.362  96.7920  0.00  0.00     0.000 C
ATOM     22  C3  SGN C   2     111.249  81.231  96.2580  0.00  0.00     0.000 C
ATOM     23  C4  SGN C   2     111.016  81.530  94.7820  0.00  0.00     0.000 C
ATOM     24  C5  SGN C   2     109.628  82.146  94.5880  0.00  0.00     0.000 C
ATOM     25  O5  SGN C   2     108.627  81.283  95.1590  0.00  0.00     0.000 O
ATOM     26   O  SGN C   2     112.503  80.589  96.4590  0.00  0.00     0.000 O
ATOM     28  HD  SGN C   2     113.225  80.165  96.6790  0.00  0.00     0.000 HD
BRANCH 21 30
ATOM     28   N  SGN C   2     109.516  79.962  98.0730  0.00  0.00     0.000 N
ATOM     30  HD  SGN C   2     109.966  80.117  98.7960  0.00  0.00     0.000 HD
ATOM     30   S  SGN C   2     109.859  78.549  98.7420  0.00  0.00     0.000 S
ATOM     31   O  SGN C   2     111.280  78.503  98.8150  0.00  0.00     0.000 OA
ATOM     32   O  SGN C   2     109.085  78.411  99.9190  0.00  0.00     0.000 OA
ATOM     33   O  SGN C   2     109.318  77.500  97.7120  0.00  0.00     0.000 OA
ENDBRANCH 21 30
BRANCH 24 34
ATOM     34   C  SGN C   2     109.247  82.341  93.1390  0.00  0.00     0.000 C
ATOM     35   O  SGN C   2     109.268  83.747  92.8360  0.00  0.00     0.000 O
ATOM     36   S  SGN C   2     108.461  84.221  91.5420  0.00  0.00     0.000 S
ATOM     37   O  SGN C   2     107.122  83.697  91.7300  0.00  0.00     0.000 OA
ATOM     38   O  SGN C   2     108.520  85.663  91.5540  0.00  0.00     0.000 OA
ATOM     39   O  SGN C   2     109.177  83.618  90.4450  0.00  0.00     0.000 OA
ENDBRANCH 24 34
BRANCH 20 40
ATOM     40  O4  IDS C   3     108.545  82.202  97.2010  0.00  0.00     0.000 O
BRANCH 40 44
ATOM     41  C1  IDS C   3     107.858  84.969  99.2740  0.00  0.00     0.000 C
ATOM     42  C2  IDS C   3     108.268  83.619  99.8550  0.00  0.00     0.000 C
ATOM     43  C3  IDS C   3     107.383  82.509  99.2950  0.00  0.00     0.000 C
ATOM     44  C4  IDS C   3     107.291  82.574  97.7780  0.00  0.00     0.000 C
ATOM     45  C5  IDS C   3     106.918  84.004  97.3350  0.00  0.00     0.000 C
ATOM     46  O5  IDS C   3     107.880  84.928  97.8500  0.00  0.00     0.000 O
ATOM     47   O  IDS C   3     106.080  82.609  99.8650  0.00  0.00     0.000 O
ATOM     49  HD  IDS C   3     106.921  82.405  99.9030  0.00  0.00     0.000 HD
BRANCH 42 49
ATOM     49   O  IDS C   3     109.677  83.322  99.5090  0.00  0.00     0.000 O
ATOM     50   S  IDS C   3     110.670  82.763 100.6350  0.00  0.00     0.000 S
ATOM     51   O  IDS C   3     110.208  81.408 100.8440  0.00  0.00     0.000 OA
ATOM     52   O  IDS C   3     110.555  83.582 101.8310  0.00  0.00     0.000 OA
ATOM     53   O  IDS C   3     111.997  82.823 100.0610  0.00  0.00     0.000 OA
ENDBRANCH 42 49
BRANCH 45 54
ATOM     54   C  IDS C   3     106.844  84.167  95.8250  0.00  0.00     0.000 C
ATOM     55   O  IDS C   3     107.510  85.011  95.2830  0.00  0.00     0.000 OA
ATOM     56   O  IDS C   3     106.101  83.459  95.1740  0.00  0.00     0.000 OA
ENDBRANCH 45 54
BRANCH 41 57
ATOM     57  O4  SGN C   4     106.768  85.368  99.9410  0.00  0.00     0.000 O
BRANCH 57 61
ATOM     58  C1  SGN C   4     104.466  88.838 100.3750  0.00  0.00     0.000 C
ATOM     59  C2  SGN C   4     104.475  88.184  98.9840  0.00  0.00     0.000 C
ATOM     60  C3  SGN C   4     104.993  86.741  99.0530  0.00  0.00     0.000 C
ATOM     61  C4  SGN C   4     106.350  86.722  99.7370  0.00  0.00     0.000 C
ATOM     62  C5  SGN C   4     106.274  87.413 101.0980  0.00  0.00     0.000 C
ATOM     63  O5  SGN C   4     105.758  88.750 100.9590  0.00  0.00     0.000 O
BRANCH 59 66
ATOM     64   N  SGN C   4     103.117  88.405  98.4760  0.00  0.00     0.000 N
ATOM     66  HD  SGN C   4     103.913  88.092  98.6110  0.00  0.00     0.000 HD
ATOM     66   O  SGN C   4     101.501  89.150  96.8120  0.00  0.00     0.000 OA
ATOM     67   O  SGN C   4     103.527  90.476  97.2330  0.00  0.00     0.000 OA
ATOM     68   S  SGN C   4     102.905  89.052  97.0230  0.00  0.00     0.000 S
ATOM     69   O  SGN C   4     103.700  88.334  96.0930  0.00  0.00     0.000 OA
ENDBRANCH 59 66
BRANCH 62 70
ATOM     70   C  SGN C   4     107.635  87.526 101.7390  0.00  0.00     0.000 C
ATOM     71   S  SGN C   4     110.048  88.283 101.3220  0.00  0.00     0.000 S
ATOM     72   O  SGN C   4     110.048  88.945 102.6120  0.00  0.00     0.000 OA
ATOM     73   O  SGN C   4     110.480  86.901 101.3860  0.00  0.00     0.000 OA
ATOM     74   O  SGN C   4     110.695  89.047 100.2800  0.00  0.00     0.000 OA
ATOM     75   O  SGN C   4     108.523  88.253 100.8820  0.00  0.00     0.000 O
ENDBRANCH 62 70
ENDBRANCH 57 61
ENDBRANCH 41 57
ENDBRANCH 40 44
ENDBRANCH 20 40
ENDBRANCH 19 23
ENDBRANCH 1 19
TORSDOF 14
ENDMDL
MODEL 74
REMARK VINA RESULT:      -0.4     59.934     66.673
ROOT
ATOM      1  C1  IDS C   1      10.455  69.718  58.9550  0.00  0.00     0.000 C
ATOM      2  C2  IDS C   1       9.324  68.806  59.3990  0.00  0.00     0.000 C
ATOM      3  C3  IDS C   1       9.799  67.842  60.4790  0.00  0.00     0.000 C
ATOM      4  C4  IDS C   1      10.503  68.586  61.6130  0.00  0.00     0.000 C
ATOM      5  C5  IDS C   1      11.564  69.550  61.0420  0.00  0.00     0.000 C
ATOM      6  O5  IDS C   1      10.979  70.421  60.0800  0.00  0.00     0.000 O
ATOM      7   O  IDS C   1      10.674  66.872  59.8990  0.00  0.00     0.000 O
ATOM      9  HD  IDS C   1      10.963  66.881  60.7150  0.00  0.00     0.000 HD
ATOM      9   O  IDS C   1       9.529  69.336  62.3540  0.00  0.00     0.000 O
ATOM     11  HD  IDS C   1       9.818  69.346  63.1710  0.00  0.00     0.000 HD
ENDROOT
BRANCH 2 11
ATOM     11   O  IDS C   1       8.216  69.607  59.9670  0.00  0.00     0.000 O
ATOM     12   S  IDS C   1       6.750  69.529  59.3360  0.00  0.00     0.000 S
ATOM     13   O  IDS C   1       5.907  69.681  60.5010  0.00  0.00     0.000 OA
ATOM     14   O  IDS C   1       6.579  68.256  58.6780  0.00  0.00     0.000 OA
ATOM     15   O  IDS C   1       6.685  70.650  58.4310  0.00  0.00     0.000 OA
ENDBRANCH 2 11
BRANCH 5 16
ATOM     16   C  IDS C   1      12.226  70.410  62.1030  0.00  0.00     0.000 C
ATOM     17   O  IDS C   1      12.754  71.448  61.7680  0.00  0.00     0.000 OA
ATOM     18   O  IDS C   1      12.243  70.065  63.2530  0.00  0.00     0.000 OA
ENDBRANCH 5 16
BRANCH 1 19
ATOM     19  O4  SGN C   2      11.357  69.256  58.0840  0.00  0.00     0.000 O
BRANCH 19 23
ATOM     20  C1  SGN C   2      13.698  70.191  54.7570  0.00  0.00     0.000 C
ATOM     21  C2  SGN C   2      14.147  70.783  56.0980  0.00  0.00     0.000 C
ATOM     22  C3  SGN C   2      13.484  70.023  57.2450  0.00  0.00     0.000 C
ATOM     23  C4  SGN C   2      11.969  70.067  57.0800  0.00  0.00     0.000 C
ATOM     24  C5  SGN C   2      11.581  69.548  55.6930  0.00  0.00     0.000 C
ATOM     25  O5  SGN C   2      12.285  70.290  54.6800  0.00  0.00     0.000 O
ATOM     26   O  SGN C   2      13.878  70.569  58.4980  0.00  0.00     0.000 O
ATOM     28  HD  SGN C   2      14.219  70.914  59.2150  0.00  0.00     0.000 HD
BRANCH 21 30
ATOM     28   N  SGN C   2      15.507  70.843  55.5470  0.00  0.00     0.000 N
ATOM     30  HD  SGN C   2      16.163  70.601  56.0580  0.00  0.00     0.000 HD
ATOM     30   S  SGN C   2      16.440  72.123  55.7790  0.00  0.00     0.000 S
ATOM     31   O  SGN C   2      16.461  72.322  57.1890  0.00  0.00     0.000 OA
ATOM     32   O  SGN C   2      17.652  71.929  55.0740  0.00  0.00     0.000 OA
ATOM     33   O  SGN C   2      15.674  73.286  55.0630  0.00  0.00     0.000 OA
ENDBRANCH 21 30
BRANCH 24 34
ATOM     34   C  SGN C   2      10.110  69.691  55.3810  0.00  0.00     0.000 C
ATOM     35   O  SGN C   2       9.486  68.398  55.4720  0.00  0.00     0.000 O
ATOM     36   S  SGN C   2       8.078  68.220  54.7400  0.00  0.00     0.000 S
ATOM     37   O  SGN C   2       8.316  68.643  53.3740  0.00  0.00     0.000 OA
ATOM     38   O  SGN C   2       7.753  66.819  54.8590  0.00  0.00     0.000 OA
ATOM     39   O  SGN C   2       7.191  69.087  55.4760  0.00  0.00     0.000 OA
ENDBRANCH 24 34
BRANCH 20 40
ATOM     40  O4  IDS C   3      14.065  68.942  54.4810  0.00  0.00     0.000 O
BRANCH 40 44
ATOM     41  C1  IDS C   3      15.405  65.792  53.6410  0.00  0.00     0.000 C
ATOM     42  C2  IDS C   3      16.301  66.955  54.0530  0.00  0.00     0.000 C
ATOM     43  C3  IDS C   3      15.982  68.194  53.2190  0.00  0.00     0.000 C
ATOM     44  C4  IDS C   3      14.490  68.486  53.1940  0.00  0.00     0.000 C
ATOM     45  C5  IDS C   3      13.711  67.211  52.8100  0.00  0.00     0.000 C
ATOM     46  O5  IDS C   3      14.031  66.163  53.7270  0.00  0.00     0.000 O
ATOM     47   O  IDS C   3      16.462  68.005  51.8900  0.00  0.00     0.000 O
ATOM     49  HD  IDS C   3      16.579  68.168  52.7330  0.00  0.00     0.000 HD
BRANCH 42 49
ATOM     49   O  IDS C   3      16.089  67.280  55.4830  0.00  0.00     0.000 O
ATOM     50   S  IDS C   3      17.352  67.507  56.4420  0.00  0.00     0.000 S
ATOM     51   O  IDS C   3      17.876  68.783  56.0060  0.00  0.00     0.000 OA
ATOM     52   O  IDS C   3      18.301  66.421  56.2560  0.00  0.00     0.000 OA
ATOM     53   O  IDS C   3      16.827  67.545  57.7900  0.00  0.00     0.000 OA
ENDBRANCH 42 49
BRANCH 45 54
ATOM     54   C  IDS C   3      12.203  67.407  52.8010  0.00  0.00     0.000 C
ATOM     55   O  IDS C   3      11.504  66.697  53.4770  0.00  0.00     0.000 OA
ATOM     56   O  IDS C   3      11.707  68.266  52.0980  0.00  0.00     0.000 OA
ENDBRANCH 45 54
BRANCH 41 57
ATOM     57  O4  SGN C   4      15.917  65.283  52.5130  0.00  0.00     0.000 O
BRANCH 57 61
ATOM     58  C1  SGN C   4      15.516  61.828  50.1840  0.00  0.00     0.000 C
ATOM     59  C2  SGN C   4      14.241  62.653  50.4210  0.00  0.00     0.000 C
ATOM     60  C3  SGN C   4      14.580  64.066  50.9160  0.00  0.00     0.000 C
ATOM     61  C4  SGN C   4      15.475  63.974  52.1400  0.00  0.00     0.000 C
ATOM     62  C5  SGN C   4      16.705  63.118  51.8410  0.00  0.00     0.000 C
ATOM     63  O5  SGN C   4      16.313  61.818  51.3600  0.00  0.00     0.000 O
BRANCH 59 66
ATOM     64   N  SGN C   4      13.491  62.522  49.1680  0.00  0.00     0.000 N
ATOM     66  HD  SGN C   4      13.796  62.801  49.9290  0.00  0.00     0.000 HD
ATOM     66   O  SGN C   4      11.502  62.023  47.8530  0.00  0.00     0.000 OA
ATOM     67   O  SGN C   4      12.077  60.620  49.7880  0.00  0.00     0.000 OA
ATOM     68   S  SGN C   4      11.952  62.069  49.2030  0.00  0.00     0.000 S
ATOM     69   O  SGN C   4      11.267  62.887  50.1380  0.00  0.00     0.000 OA
ENDBRANCH 59 66
BRANCH 62 70
ATOM     70   C  SGN C   4      17.542  62.900  53.0770  0.00  0.00     0.000 C
ATOM     71   S  SGN C   4      17.528  61.840  55.4110  0.00  0.00     0.000 S
ATOM     72   O  SGN C   4      18.843  61.287  55.1520  0.00  0.00     0.000 OA
ATOM     73   O  SGN C   4      17.568  63.163  55.9990  0.00  0.00     0.000 OA
ATOM     74   O  SGN C   4      16.640  60.926  56.0920  0.00  0.00     0.000 OA
ATOM     75   O  SGN C   4      16.870  62.010  53.9750  0.00  0.00     0.000 O
ENDBRANCH 62 70
ENDBRANCH 57 61
ENDBRANCH 41 57
ENDBRANCH 40 44
ENDBRANCH 20 40
ENDBRANCH 19 23
ENDBRANCH 1 19
TORSDOF 14
ENDMDL
MODEL 75
REMARK VINA RESULT:      -0.4    124.915    130.151
ROOT
ATOM      1  C1  IDS C   1      89.557 107.884   3.5990  0.00  0.00     0.000 C
ATOM      2  C2  IDS C   1      90.218 108.660   2.4740  0.00  0.00     0.000 C
ATOM      3  C3  IDS C   1      90.893 107.715   1.4880  0.00  0.00     0.000 C
ATOM      4  C4  IDS C   1      89.932 106.617   1.0300  0.00  0.00     0.000 C
ATOM      5  C5  IDS C   1      89.250 105.962   2.2480  0.00  0.00     0.000 C
ATOM      6  O5  IDS C   1      88.623 106.951   3.0590  0.00  0.00     0.000 O
ATOM      7   O  IDS C   1      92.053 107.142   2.0950  0.00  0.00     0.000 O
ATOM      9  HD  IDS C   1      91.849 106.523   1.5250  0.00  0.00     0.000 HD
ATOM      9   O  IDS C   1      88.932 107.198   0.1790  0.00  0.00     0.000 O
ATOM     11  HD  IDS C   1      88.728 106.579  -0.3910  0.00  0.00     0.000 HD
ENDROOT
BRANCH 2 11
ATOM     11   O  IDS C   1      89.204 109.439   1.7270  0.00  0.00     0.000 O
ATOM     12   S  IDS C   1      89.365 111.019   1.5430  0.00  0.00     0.000 S
ATOM     13   O  IDS C   1      88.804 111.233   0.2280  0.00  0.00     0.000 OA
ATOM     14   O  IDS C   1      90.763 111.370   1.6240  0.00  0.00     0.000 OA
ATOM     15   O  IDS C   1      88.575 111.590   2.6050  0.00  0.00     0.000 OA
ENDBRANCH 2 11
BRANCH 5 16
ATOM     16   C  IDS C   1      88.195 104.940   1.8670  0.00  0.00     0.000 C
ATOM     17   O  IDS C   1      87.096 105.330   1.5340  0.00  0.00     0.000 OA
ATOM     18   O  IDS C   1      88.434 103.765   1.9070  0.00  0.00     0.000 OA
ENDBRANCH 5 16
BRANCH 1 19
ATOM     19  O4  SGN C   2      90.310 107.439   4.6090  0.00  0.00     0.000 O
BRANCH 19 23
ATOM     20  C1  SGN C   2      90.538 106.926   8.7460  0.00  0.00     0.000 C
ATOM     21  C2  SGN C   2      89.600 105.978   7.9890  0.00  0.00     0.000 C
ATOM     22  C3  SGN C   2      89.946 105.989   6.5020  0.00  0.00     0.000 C
ATOM     23  C4  SGN C   2      89.869 107.414   5.9680  0.00  0.00     0.000 C
ATOM     24  C5  SGN C   2      90.755 108.334   6.8120  0.00  0.00     0.000 C
ATOM     25  O5  SGN C   2      90.388 108.226   8.2000  0.00  0.00     0.000 O
ATOM     26   O  SGN C   2      89.075 105.125   5.7820  0.00  0.00     0.000 O
ATOM     28  HD  SGN C   2      88.551 104.531   5.4310  0.00  0.00     0.000 HD
BRANCH 21 30
ATOM     28   N  SGN C   2      89.788 104.985   9.0550  0.00  0.00     0.000 N
ATOM     30  HD  SGN C   2      89.862 104.153   8.8270  0.00  0.00     0.000 HD
ATOM     30   S  SGN C   2      88.545 104.198   9.6840  0.00  0.00     0.000 S
ATOM     31   O  SGN C   2      87.866 103.619   8.5740  0.00  0.00     0.000 OA
ATOM     32   O  SGN C   2      89.020 103.373  10.7320  0.00  0.00     0.000 OA
ATOM     33   O  SGN C   2      87.677 105.323  10.3440  0.00  0.00     0.000 OA
ENDBRANCH 21 30
BRANCH 24 34
ATOM     34   C  SGN C   2      90.630 109.796   6.4510  0.00  0.00     0.000 C
ATOM     35   O  SGN C   2      91.784 110.189   5.6880  0.00  0.00     0.000 O
ATOM     36   S  SGN C   2      92.102 111.752   5.6060  0.00  0.00     0.000 S
ATOM     37   O  SGN C   2      92.154 112.191   6.9870  0.00  0.00     0.000 OA
ATOM     38   O  SGN C   2      93.368 111.856   4.9220  0.00  0.00     0.000 OA
ATOM     39   O  SGN C   2      90.992 112.294   4.8610  0.00  0.00     0.000 OA
ENDBRANCH 24 34
BRANCH 20 40
ATOM     40  O4  IDS C   3      91.831 106.613   8.7830  0.00  0.00     0.000 O
BRANCH 40 44
ATOM     41  C1  IDS C   3      95.154 105.511   9.1910  0.00  0.00     0.000 C
ATOM     42  C2  IDS C   3      93.969 104.637   9.5900  0.00  0.00     0.000 C
ATOM     43  C3  IDS C   3      93.022 105.411  10.5040  0.00  0.00     0.000 C
ATOM     44  C4  IDS C   3      92.672 106.774   9.9280  0.00  0.00     0.000 C
ATOM     45  C5  IDS C   3      93.961 107.521   9.5250  0.00  0.00     0.000 C
ATOM     46  O5  IDS C   3      94.703 106.726   8.5980  0.00  0.00     0.000 O
ATOM     47   O  IDS C   3      93.625 105.566  11.7870  0.00  0.00     0.000 O
ATOM     49  HD  IDS C   3      93.224 105.097  11.1790  0.00  0.00     0.000 HD
BRANCH 42 49
ATOM     49   O  IDS C   3      93.221 104.211   8.3850  0.00  0.00     0.000 O
ATOM     50   S  IDS C   3      92.814 102.672   8.2060  0.00  0.00     0.000 S
ATOM     51   O  IDS C   3      91.766 102.489   9.1870  0.00  0.00     0.000 OA
ATOM     52   O  IDS C   3      93.972 101.832   8.4640  0.00  0.00     0.000 OA
ATOM     53   O  IDS C   3      92.340 102.541   6.8450  0.00  0.00     0.000 OA
ENDBRANCH 42 49
BRANCH 45 54
ATOM     54   C  IDS C   3      93.698 108.882   8.9010  0.00  0.00     0.000 C
ATOM     55   O  IDS C   3      94.157 109.141   7.8180  0.00  0.00     0.000 OA
ATOM     56   O  IDS C   3      93.041 109.709   9.5030  0.00  0.00     0.000 OA
ENDBRANCH 45 54
BRANCH 41 57
ATOM     57  O4  SGN C   4      96.003 105.518  10.2260  0.00  0.00     0.000 O
BRANCH 57 61
ATOM     58  C1  SGN C   4      99.923 106.738  11.0460  0.00  0.00     0.000 C
ATOM     59  C2  SGN C   4      98.931 107.835  10.6270  0.00  0.00     0.000 C
ATOM     60  C3  SGN C   4      97.481 107.350  10.7570  0.00  0.00     0.000 C
ATOM     61  C4  SGN C   4      97.308 106.053   9.9840  0.00  0.00     0.000 C
ATOM     62  C5  SGN C   4      98.343 105.021  10.4300  0.00  0.00     0.000 C
ATOM     63  O5  SGN C   4      99.675 105.552  10.3040  0.00  0.00     0.000 O
BRANCH 59 66
ATOM     64   N  SGN C   4      99.342 109.005  11.4100  0.00  0.00     0.000 N
ATOM     66  HD  SGN C   4      98.886 108.436  10.9420  0.00  0.00     0.000 HD
ATOM     66   O  SGN C   4      99.982 111.340  11.6780  0.00  0.00     0.000 OA
ATOM     67   O  SGN C   4     100.807 110.055   9.7520  0.00  0.00     0.000 OA
ATOM     68   S  SGN C   4      99.590 110.409  10.6750  0.00  0.00     0.000 S
ATOM     69   O  SGN C   4      98.463 110.695   9.8620  0.00  0.00     0.000 OA
ENDBRANCH 59 66
BRANCH 62 70
ATOM     70   C  SGN C   4      98.280 103.773   9.5860  0.00  0.00     0.000 C
ATOM     71   S  SGN C   4      98.402 102.911   7.1750  0.00  0.00     0.000 S
ATOM     72   O  SGN C   4      99.284 101.848   7.6140  0.00  0.00     0.000 OA
ATOM     73   O  SGN C   4      96.999 102.558   7.2420  0.00  0.00     0.000 OA
ATOM     74   O  SGN C   4      98.794 103.504   5.9160  0.00  0.00     0.000 OA
ATOM     75   O  SGN C   4      98.619 104.079   8.2290  0.00  0.00     0.000 O
ENDBRANCH 62 70
ENDBRANCH 57 61
ENDBRANCH 41 57
ENDBRANCH 40 44
ENDBRANCH 20 40
ENDBRANCH 19 23
ENDBRANCH 1 19
TORSDOF 14
ENDMDL
MODEL 76
REMARK VINA RESULT:      -0.4     59.073     63.057
ROOT
ATOM      1  C1  IDS C   1       9.977  51.997  72.0870  0.00  0.00     0.000 C
ATOM      2  C2  IDS C   1       8.658  51.915  72.8340  0.00  0.00     0.000 C
ATOM      3  C3  IDS C   1       8.804  52.459  74.2500  0.00  0.00     0.000 C
ATOM      4  C4  IDS C   1       9.450  53.844  74.2450  0.00  0.00     0.000 C
ATOM      5  C5  IDS C   1      10.728  53.833  73.3830  0.00  0.00     0.000 C
ATOM      6  O5  IDS C   1      10.443  53.346  72.0760  0.00  0.00     0.000 O
ATOM      7   O  IDS C   1       9.578  51.548  75.0320  0.00  0.00     0.000 O
ATOM      9  HD  IDS C   1       9.743  52.292  75.4430  0.00  0.00     0.000 HD
ATOM      9   O  IDS C   1       8.518  54.793  73.7040  0.00  0.00     0.000 O
ATOM     11  HD  IDS C   1       8.684  55.537  74.1150  0.00  0.00     0.000 HD
ENDROOT
BRANCH 2 11
ATOM     11   O  IDS C   1       7.630  52.726  72.1440  0.00  0.00     0.000 O
ATOM     12   S  IDS C   1       6.274  52.054  71.6300  0.00  0.00     0.000 S
ATOM     13   O  IDS C   1       5.313  53.117  71.8230  0.00  0.00     0.000 OA
ATOM     14   O  IDS C   1       5.988  50.884  72.4250  0.00  0.00     0.000 OA
ATOM     15   O  IDS C   1       6.523  51.750  70.2430  0.00  0.00     0.000 OA
ENDBRANCH 2 11
BRANCH 5 16
ATOM     16   C  IDS C   1      11.364  55.204  73.2360  0.00  0.00     0.000 C
ATOM     17   O  IDS C   1      11.298  55.981  74.1650  0.00  0.00     0.000 OA
ATOM     18   O  IDS C   1      11.910  55.523  72.2160  0.00  0.00     0.000 OA
ENDBRANCH 5 16
BRANCH 1 19
ATOM     19  O4  SGN C   2      10.906  51.061  72.3040  0.00  0.00     0.000 O
BRANCH 19 23
ATOM     20  C1  SGN C   2      13.830  48.660  70.5410  0.00  0.00     0.000 C
ATOM     21  C2  SGN C   2      14.164  50.149  70.6890  0.00  0.00     0.000 C
ATOM     22  C3  SGN C   2      13.228  50.789  71.7100  0.00  0.00     0.000 C
ATOM     23  C4  SGN C   2      11.780  50.568  71.2870  0.00  0.00     0.000 C
ATOM     24  C5  SGN C   2      11.524  49.075  71.0690  0.00  0.00     0.000 C
ATOM     25  O5  SGN C   2      12.477  48.548  70.1280  0.00  0.00     0.000 O
ATOM     26   O  SGN C   2      13.514  52.176  71.8490  0.00  0.00     0.000 O
ATOM     28  HD  SGN C   2      13.796  52.991  71.9230  0.00  0.00     0.000 HD
BRANCH 21 30
ATOM     28   N  SGN C   2      15.577  49.749  70.6530  0.00  0.00     0.000 N
ATOM     30  HD  SGN C   2      16.114  50.103  71.2330  0.00  0.00     0.000 HD
ATOM     30   S  SGN C   2      16.662  50.607  69.8480  0.00  0.00     0.000 S
ATOM     31   O  SGN C   2      16.530  51.937  70.3400  0.00  0.00     0.000 OA
ATOM     32   O  SGN C   2      17.910  49.944  69.9300  0.00  0.00     0.000 OA
ATOM     33   O  SGN C   2      16.190  50.515  68.3570  0.00  0.00     0.000 OA
ENDBRANCH 21 30
BRANCH 24 34
ATOM     34   C  SGN C   2      10.156  48.770  70.5050  0.00  0.00     0.000 C
ATOM     35   O  SGN C   2       9.319  48.260  71.5580  0.00  0.00     0.000 O
ATOM     36   S  SGN C   2       8.020  47.442  71.1200  0.00  0.00     0.000 S
ATOM     37   O  SGN C   2       8.516  46.407  70.2340  0.00  0.00     0.000 OA
ATOM     38   O  SGN C   2       7.453  46.928  72.3440  0.00  0.00     0.000 OA
ATOM     39   O  SGN C   2       7.193  48.426  70.4650  0.00  0.00     0.000 OA
ENDBRANCH 24 34
BRANCH 20 40
ATOM     40  O4  IDS C   3      14.031  47.876  71.5970  0.00  0.00     0.000 O
BRANCH 40 44
ATOM     41  C1  IDS C   3      14.971  45.797  74.2850  0.00  0.00     0.000 C
ATOM     42  C2  IDS C   3      15.968  46.743  73.6210  0.00  0.00     0.000 C
ATOM     43  C3  IDS C   3      15.972  46.534  72.1090  0.00  0.00     0.000 C
ATOM     44  C4  IDS C   3      14.563  46.550  71.5350  0.00  0.00     0.000 C
ATOM     45  C5  IDS C   3      13.659  45.588  72.3330  0.00  0.00     0.000 C
ATOM     46  O5  IDS C   3      13.675  45.956  73.7140  0.00  0.00     0.000 O
ATOM     47   O  IDS C   3      16.606  45.294  71.8040  0.00  0.00     0.000 O
ATOM     49  HD  IDS C   3      16.622  46.126  72.0450  0.00  0.00     0.000 HD
BRANCH 42 49
ATOM     49   O  IDS C   3      15.602  48.150  73.9040  0.00  0.00     0.000 O
ATOM     50   S  IDS C   3      16.732  49.186  74.3680  0.00  0.00     0.000 S
ATOM     51   O  IDS C   3      17.503  49.401  73.1640  0.00  0.00     0.000 OA
ATOM     52   O  IDS C   3      17.520  48.594  75.4370  0.00  0.00     0.000 OA
ATOM     53   O  IDS C   3      16.028  50.373  74.8060  0.00  0.00     0.000 OA
ENDBRANCH 42 49
BRANCH 45 54
ATOM     54   C  IDS C   3      12.218  45.574  71.8480  0.00  0.00     0.000 C
ATOM     55   O  IDS C   3      11.327  45.820  72.6180  0.00  0.00     0.000 OA
ATOM     56   O  IDS C   3      11.971  45.297  70.6900  0.00  0.00     0.000 OA
ENDBRANCH 45 54
BRANCH 41 57
ATOM     57  O4  SGN C   4      15.557  44.596  74.3550  0.00  0.00     0.000 O
BRANCH 57 61
ATOM     58  C1  SGN C   4      14.826  40.865  76.1090  0.00  0.00     0.000 C
ATOM     59  C2  SGN C   4      13.747  41.404  75.1550  0.00  0.00     0.000 C
ATOM     60  C3  SGN C   4      14.297  42.540  74.2810  0.00  0.00     0.000 C
ATOM     61  C4  SGN C   4      14.910  43.612  75.1670  0.00  0.00     0.000 C
ATOM     62  C5  SGN C   4      15.949  43.001  76.1060  0.00  0.00     0.000 C
ATOM     63  O5  SGN C   4      15.371  41.930  76.8750  0.00  0.00     0.000 O
BRANCH 59 66
ATOM     64   N  SGN C   4      13.231  40.188  74.5200  0.00  0.00     0.000 N
ATOM     66  HD  SGN C   4      13.462  41.006  74.6830  0.00  0.00     0.000 HD
ATOM     66   O  SGN C   4      11.455  38.710  73.7480  0.00  0.00     0.000 OA
ATOM     67   O  SGN C   4      11.231  39.877  75.9000  0.00  0.00     0.000 OA
ATOM     68   S  SGN C   4      11.648  39.965  74.3900  0.00  0.00     0.000 S
ATOM     69   O  SGN C   4      11.077  41.133  73.8220  0.00  0.00     0.000 OA
ENDBRANCH 59 66
BRANCH 62 70
ATOM     70   C  SGN C   4      16.475  44.019  77.0860  0.00  0.00     0.000 C
ATOM     71   S  SGN C   4      15.760  45.746  78.8410  0.00  0.00     0.000 S
ATOM     72   O  SGN C   4      16.785  45.241  79.7340  0.00  0.00     0.000 OA
ATOM     73   O  SGN C   4      16.228  46.806  77.9720  0.00  0.00     0.000 OA
ATOM     74   O  SGN C   4      14.512  46.044  79.5050  0.00  0.00     0.000 OA
ATOM     75   O  SGN C   4      15.405  44.519  77.8980  0.00  0.00     0.000 O
ENDBRANCH 62 70
ENDBRANCH 57 61
ENDBRANCH 41 57
ENDBRANCH 40 44
ENDBRANCH 20 40
ENDBRANCH 19 23
ENDBRANCH 1 19
TORSDOF 14
ENDMDL
MODEL 77
REMARK VINA RESULT:      -0.4     76.731     80.438
ROOT
ATOM      1  C1  IDS C   1      19.015  90.935  14.1110  0.00  0.00     0.000 C
ATOM      2  C2  IDS C   1      17.698  90.739  14.8410  0.00  0.00     0.000 C
ATOM      3  C3  IDS C   1      17.885  89.852  16.0660  0.00  0.00     0.000 C
ATOM      4  C4  IDS C   1      19.033  90.355  16.9410  0.00  0.00     0.000 C
ATOM      5  C5  IDS C   1      20.288  90.608  16.0820  0.00  0.00     0.000 C
ATOM      6  O5  IDS C   1      19.984  91.484  15.0020  0.00  0.00     0.000 O
ATOM      7   O  IDS C   1      18.128  88.507  15.6480  0.00  0.00     0.000 O
ATOM      9  HD  IDS C   1      18.531  88.512  16.4140  0.00  0.00     0.000 HD
ATOM      9   O  IDS C   1      18.634  91.581  17.5750  0.00  0.00     0.000 O
ATOM     11  HD  IDS C   1      19.037  91.585  18.3410  0.00  0.00     0.000 HD
ENDROOT
BRANCH 2 11
ATOM     11   O  IDS C   1      17.173  92.042  15.3060  0.00  0.00     0.000 O
ATOM     12   S  IDS C   1      15.776  92.597  14.7630  0.00  0.00     0.000 S
ATOM     13   O  IDS C   1      15.253  93.292  15.9190  0.00  0.00     0.000 OA
ATOM     14   O  IDS C   1      14.949  91.489  14.3500  0.00  0.00     0.000 OA
ATOM     15   O  IDS C   1      16.131  93.476  13.6770  0.00  0.00     0.000 OA
ENDBRANCH 2 11
BRANCH 5 16
ATOM     16   C  IDS C   1      21.436  91.220  16.8640  0.00  0.00     0.000 C
ATOM     17   O  IDS C   1      21.411  92.407  17.1080  0.00  0.00     0.000 OA
ATOM     18   O  IDS C   1      22.364  90.547  17.2230  0.00  0.00     0.000 OA
ENDBRANCH 5 16
BRANCH 1 19
ATOM     19  O4  SGN C   2      19.452  89.973  13.2930  0.00  0.00     0.000 O
BRANCH 19 23
ATOM     20  C1  SGN C   2      21.429  89.165   9.7060  0.00  0.00     0.000 C
ATOM     21  C2  SGN C   2      22.301  89.628  10.8800  0.00  0.00     0.000 C
ATOM     22  C3  SGN C   2      21.535  89.460  12.1890  0.00  0.00     0.000 C
ATOM     23  C4  SGN C   2      20.221  90.229  12.1170  0.00  0.00     0.000 C
ATOM     24  C5  SGN C   2      19.430  89.792  10.8810  0.00  0.00     0.000 C
ATOM     25  O5  SGN C   2      20.243  89.942   9.7030  0.00  0.00     0.000 O
ATOM     26   O  SGN C   2      22.325  89.900  13.2880  0.00  0.00     0.000 O
ATOM     28  HD  SGN C   2      22.892  90.122  13.9040  0.00  0.00     0.000 HD
BRANCH 21 30
ATOM     28   N  SGN C   2      23.382  89.036  10.0800  0.00  0.00     0.000 N
ATOM     30  HD  SGN C   2      23.869  88.422  10.4480  0.00  0.00     0.000 HD
ATOM     30   S  SGN C   2      24.879  89.593  10.1660  0.00  0.00     0.000 S
ATOM     31   O  SGN C   2      25.210  89.570  11.5510  0.00  0.00     0.000 OA
ATOM     32   O  SGN C   2      25.676  88.884   9.2360  0.00  0.00     0.000 OA
ATOM     33   O  SGN C   2      24.766  91.067   9.6440  0.00  0.00     0.000 OA
ENDBRANCH 21 30
BRANCH 24 34
ATOM     34   C  SGN C   2      18.179  90.604  10.6420  0.00  0.00     0.000 C
ATOM     35   O  SGN C   2      17.033  89.813  10.9990  0.00  0.00     0.000 O
ATOM     36   S  SGN C   2      15.623  90.266  10.4010  0.00  0.00     0.000 S
ATOM     37   O  SGN C   2      15.839  90.344   8.9690  0.00  0.00     0.000 OA
ATOM     38   O  SGN C   2      14.688  89.236  10.7850  0.00  0.00     0.000 OA
ATOM     39   O  SGN C   2      15.373  91.541  11.0260  0.00  0.00     0.000 OA
ENDBRANCH 24 34
BRANCH 20 40
ATOM     40  O4  IDS C   3      21.108  87.875   9.6500  0.00  0.00     0.000 O
BRANCH 40 44
ATOM     41  C1  IDS C   3      20.611  84.399   9.3380  0.00  0.00     0.000 C
ATOM     42  C2  IDS C   3      22.009  84.997   9.4690  0.00  0.00     0.000 C
ATOM     43  C3  IDS C   3      22.213  86.104   8.4380  0.00  0.00     0.000 C
ATOM     44  C4  IDS C   3      21.065  87.101   8.4490  0.00  0.00     0.000 C
ATOM     45  C5  IDS C   3      19.718  86.353   8.3590  0.00  0.00     0.000 C
ATOM     46  O5  IDS C   3      19.620  85.418   9.4360  0.00  0.00     0.000 O
ATOM     47   O  IDS C   3      22.341  85.525   7.1420  0.00  0.00     0.000 O
ATOM     49  HD  IDS C   3      22.644  85.717   7.9300  0.00  0.00     0.000 HD
BRANCH 42 49
ATOM     49   O  IDS C   3      22.192  85.570  10.8230  0.00  0.00     0.000 O
ATOM     50   S  IDS C   3      23.577  85.349  11.5970  0.00  0.00     0.000 S
ATOM     51   O  IDS C   3      24.502  86.196  10.8760  0.00  0.00     0.000 OA
ATOM     52   O  IDS C   3      23.945  83.944  11.5380  0.00  0.00     0.000 OA
ATOM     53   O  IDS C   3      23.349  85.794  12.9560  0.00  0.00     0.000 OA
ENDBRANCH 42 49
BRANCH 45 54
ATOM     54   C  IDS C   3      18.512  87.278   8.4040  0.00  0.00     0.000 C
ATOM     55   O  IDS C   3      18.425  88.184   7.6170  0.00  0.00     0.000 OA
ATOM     56   O  IDS C   3      17.649  87.109   9.2440  0.00  0.00     0.000 OA
ENDBRANCH 45 54
BRANCH 41 57
ATOM     57  O4  SGN C   4      20.641  83.558   8.2970  0.00  0.00     0.000 O
BRANCH 57 61
ATOM     58  C1  SGN C   4      18.261  80.528   6.6590  0.00  0.00     0.000 C
ATOM     59  C2  SGN C   4      17.689  81.955   6.6180  0.00  0.00     0.000 C
ATOM     60  C3  SGN C   4      18.788  82.999   6.8560  0.00  0.00     0.000 C
ATOM     61  C4  SGN C   4      19.521  82.680   8.1480  0.00  0.00     0.000 C
ATOM     62  C5  SGN C   4      20.035  81.241   8.1310  0.00  0.00     0.000 C
ATOM     63  O5  SGN C   4      18.957  80.320   7.8790  0.00  0.00     0.000 O
BRANCH 59 66
ATOM     64   N  SGN C   4      16.961  82.053   5.3490  0.00  0.00     0.000 N
ATOM     66  HD  SGN C   4      17.374  82.240   6.0870  0.00  0.00     0.000 HD
ATOM     66   O  SGN C   4      14.977  82.451   3.9920  0.00  0.00     0.000 OA
ATOM     67   O  SGN C   4      14.788  81.218   6.1110  0.00  0.00     0.000 OA
ATOM     68   S  SGN C   4      15.405  82.443   5.3500  0.00  0.00     0.000 S
ATOM     69   O  SGN C   4      15.236  83.609   6.1400  0.00  0.00     0.000 OA
ENDBRANCH 59 66
BRANCH 62 70
ATOM     70   C  SGN C   4      20.649  80.855   9.4540  0.00  0.00     0.000 C
ATOM     71   S  SGN C   4      20.287  80.935  11.9900  0.00  0.00     0.000 S
ATOM     72   O  SGN C   4      20.696  79.546  12.0770  0.00  0.00     0.000 OA
ATOM     73   O  SGN C   4      21.391  81.866  12.1070  0.00  0.00     0.000 OA
ATOM     74   O  SGN C   4      19.159  81.259  12.8330  0.00  0.00     0.000 OA
ATOM     75   O  SGN C   4      19.719  81.098  10.5160  0.00  0.00     0.000 O
ENDBRANCH 62 70
ENDBRANCH 57 61
ENDBRANCH 41 57
ENDBRANCH 40 44
ENDBRANCH 20 40
ENDBRANCH 19 23
ENDBRANCH 1 19
TORSDOF 14
ENDMDL
MODEL 78
REMARK VINA RESULT:      -0.4     82.447     87.186
ROOT
ATOM      1  C1  IDS C   1      97.495  21.103  14.5470  0.00  0.00     0.000 C
ATOM      2  C2  IDS C   1      96.877  21.918  15.6690  0.00  0.00     0.000 C
ATOM      3  C3  IDS C   1      97.791  21.942  16.8870  0.00  0.00     0.000 C
ATOM      4  C4  IDS C   1      99.211  22.358  16.5040  0.00  0.00     0.000 C
ATOM      5  C5  IDS C   1      99.701  21.531  15.2980  0.00  0.00     0.000 C
ATOM      6  O5  IDS C   1      98.779  21.631  14.2180  0.00  0.00     0.000 O
ATOM      7   O  IDS C   1      97.796  20.654  17.5040  0.00  0.00     0.000 O
ATOM      9  HD  IDS C   1      98.575  20.948  17.7430  0.00  0.00     0.000 HD
ATOM      9   O  IDS C   1      99.212  23.751  16.1580  0.00  0.00     0.000 O
ATOM     11  HD  IDS C   1      99.991  24.046  16.3970  0.00  0.00     0.000 HD
ENDROOT
BRANCH 2 11
ATOM     11   O  IDS C   1      96.673  23.317  15.2310  0.00  0.00     0.000 O
ATOM     12   S  IDS C   1      95.212  23.965  15.2280  0.00  0.00     0.000 S
ATOM     13   O  IDS C   1      95.487  25.341  15.5770  0.00  0.00     0.000 OA
ATOM     14   O  IDS C   1      94.388  23.290  16.2020  0.00  0.00     0.000 OA
ATOM     15   O  IDS C   1      94.744  23.798  13.8750  0.00  0.00     0.000 OA
ENDBRANCH 2 11
BRANCH 5 16
ATOM     16   C  IDS C   1     101.062  21.967  14.7850  0.00  0.00     0.000 C
ATOM     17   O  IDS C   1     101.219  23.123  14.4540  0.00  0.00     0.000 OA
ATOM     18   O  IDS C   1     101.965  21.182  14.6920  0.00  0.00     0.000 OA
ENDBRANCH 5 16
BRANCH 1 19
ATOM     19  O4  SGN C   2      97.405  19.770  14.5870  0.00  0.00     0.000 O
BRANCH 19 23
ATOM     20  C1  SGN C   2      96.818  16.308  12.3300  0.00  0.00     0.000 C
ATOM     21  C2  SGN C   2      98.189  16.984  12.2040  0.00  0.00     0.000 C
ATOM     22  C3  SGN C   2      98.403  17.939  13.3750  0.00  0.00     0.000 C
ATOM     23  C4  SGN C   2      97.268  18.955  13.4220  0.00  0.00     0.000 C
ATOM     24  C5  SGN C   2      95.920  18.229  13.4590  0.00  0.00     0.000 C
ATOM     25  O5  SGN C   2      95.825  17.321  12.3460  0.00  0.00     0.000 O
ATOM     26   O  SGN C   2      99.665  18.587  13.2660  0.00  0.00     0.000 O
ATOM     28  HD  SGN C   2     100.472  18.883  13.1620  0.00  0.00     0.000 HD
BRANCH 21 30
ATOM     28   N  SGN C   2      98.762  15.679  11.8490  0.00  0.00     0.000 N
ATOM     30  HD  SGN C   2      99.537  15.473  12.1760  0.00  0.00     0.000 HD
ATOM     30   S  SGN C   2      99.779  15.525  10.6240  0.00  0.00     0.000 S
ATOM     31   O  SGN C   2     100.811  16.475  10.8700  0.00  0.00     0.000 OA
ATOM     32   O  SGN C   2     100.101  14.154  10.4760  0.00  0.00     0.000 OA
ATOM     33   O  SGN C   2      98.931  15.935   9.3720  0.00  0.00     0.000 OA
ENDBRANCH 21 30
BRANCH 24 34
ATOM     34   C  SGN C   2      94.730  19.153  13.3570  0.00  0.00     0.000 C
ATOM     35   O  SGN C   2      94.105  19.254  14.6500  0.00  0.00     0.000 O
ATOM     36   S  SGN C   2      92.597  19.775  14.6870  0.00  0.00     0.000 S
ATOM     37   O  SGN C   2      91.883  18.902  13.7760  0.00  0.00     0.000 OA
ATOM     38   O  SGN C   2      92.173  19.640  16.0600  0.00  0.00     0.000 OA
ATOM     39   O  SGN C   2      92.688  21.142  14.2380  0.00  0.00     0.000 OA
ENDBRANCH 24 34
BRANCH 20 40
ATOM     40  O4  IDS C   3      96.627  15.491  13.3630  0.00  0.00     0.000 O
BRANCH 40 44
ATOM     41  C1  IDS C   3      96.252  13.079  15.9060  0.00  0.00     0.000 C
ATOM     42  C2  IDS C   3      97.405  13.014  14.9090  0.00  0.00     0.000 C
ATOM     43  C3  IDS C   3      96.875  13.093  13.4790  0.00  0.00     0.000 C
ATOM     44  C4  IDS C   3      95.911  14.255  13.2990  0.00  0.00     0.000 C
ATOM     45  C5  IDS C   3      94.834  14.220  14.4030  0.00  0.00     0.000 C
ATOM     46  O5  IDS C   3      95.464  14.246  15.6850  0.00  0.00     0.000 O
ATOM     47   O  IDS C   3      96.226  11.868  13.1470  0.00  0.00     0.000 O
ATOM     49  HD  IDS C   3      96.932  12.348  13.2890  0.00  0.00     0.000 HD
BRANCH 42 49
ATOM     49   O  IDS C   3      98.336  14.144  15.1320  0.00  0.00     0.000 O
ATOM     50   S  IDS C   3      99.917  13.886  15.1110  0.00  0.00     0.000 S
ATOM     51   O  IDS C   3     100.197  13.647  13.7120  0.00  0.00     0.000 OA
ATOM     52   O  IDS C   3     100.230  12.738  15.9470  0.00  0.00     0.000 OA
ATOM     53   O  IDS C   3     100.525  15.102  15.6080  0.00  0.00     0.000 OA
ENDBRANCH 42 49
BRANCH 45 54
ATOM     54   C  IDS C   3      93.849  15.376  14.3190  0.00  0.00     0.000 C
ATOM     55   O  IDS C   3      93.678  16.084  15.2770  0.00  0.00     0.000 OA
ATOM     56   O  IDS C   3      93.226  15.569  13.2940  0.00  0.00     0.000 OA
ENDBRANCH 45 54
BRANCH 41 57
ATOM     57  O4  SGN C   4      95.695  11.862  15.9420  0.00  0.00     0.000 O
BRANCH 57 61
ATOM     58  C1  SGN C   4      92.846   9.794  18.2080  0.00  0.00     0.000 C
ATOM     59  C2  SGN C   4      92.346  11.009  17.4100  0.00  0.00     0.000 C
ATOM     60  C3  SGN C   4      93.356  11.417  16.3290  0.00  0.00     0.000 C
ATOM     61  C4  SGN C   4      94.720  11.632  16.9630  0.00  0.00     0.000 C
ATOM     62  C5  SGN C   4      95.140  10.399  17.7620  0.00  0.00     0.000 C
ATOM     63  O5  SGN C   4      94.136  10.061  18.7390  0.00  0.00     0.000 O
BRANCH 59 66
ATOM     64   N  SGN C   4      90.996  10.627  16.9850  0.00  0.00     0.000 N
ATOM     66  HD  SGN C   4      91.773  11.004  17.0440  0.00  0.00     0.000 HD
ATOM     66   O  SGN C   4      88.596  10.977  16.7510  0.00  0.00     0.000 OA
ATOM     67   O  SGN C   4      89.735  11.632  18.8290  0.00  0.00     0.000 OA
ATOM     68   S  SGN C   4      89.762  11.615  17.2620  0.00  0.00     0.000 S
ATOM     69   O  SGN C   4      90.110  12.907  16.7920  0.00  0.00     0.000 OA
ENDBRANCH 59 66
BRANCH 62 70
ATOM     70   C  SGN C   4      96.427  10.636  18.5110  0.00  0.00     0.000 C
ATOM     71   S  SGN C   4      97.681  12.340  19.9590  0.00  0.00     0.000 S
ATOM     72   O  SGN C   4      98.046  11.274  20.8710  0.00  0.00     0.000 OA
ATOM     73   O  SGN C   4      98.637  12.530  18.8860  0.00  0.00     0.000 OA
ATOM     74   O  SGN C   4      97.301  13.565  20.6240  0.00  0.00     0.000 OA
ATOM     75   O  SGN C   4      96.336  11.844  19.2750  0.00  0.00     0.000 O
ENDBRANCH 62 70
ENDBRANCH 57 61
ENDBRANCH 41 57
ENDBRANCH 40 44
ENDBRANCH 20 40
ENDBRANCH 19 23
ENDBRANCH 1 19
TORSDOF 14
ENDMDL
MODEL 79
REMARK VINA RESULT:      -0.4    102.242    107.613
ROOT
ATOM      1  C1  IDS C   1     114.513  30.193  57.5670  0.00  0.00     0.000 C
ATOM      2  C2  IDS C   1     114.689  30.396  56.0720  0.00  0.00     0.000 C
ATOM      3  C3  IDS C   1     114.405  31.842  55.6860  0.00  0.00     0.000 C
ATOM      4  C4  IDS C   1     115.199  32.813  56.5610  0.00  0.00     0.000 C
ATOM      5  C5  IDS C   1     115.021  32.456  58.0500  0.00  0.00     0.000 C
ATOM      6  O5  IDS C   1     115.360  31.092  58.2800  0.00  0.00     0.000 O
ATOM      7   O  IDS C   1     113.004  32.099  55.7970  0.00  0.00     0.000 O
ATOM      9  HD  IDS C   1     113.323  32.894  55.9250  0.00  0.00     0.000 HD
ATOM      9   O  IDS C   1     116.589  32.726  56.2120  0.00  0.00     0.000 O
ATOM     11  HD  IDS C   1     116.908  33.521  56.3400  0.00  0.00     0.000 HD
ENDROOT
BRANCH 2 11
ATOM     11   O  IDS C   1     116.082  30.090  55.6760  0.00  0.00     0.000 O
ATOM     12   S  IDS C   1     116.389  28.951  54.5970  0.00  0.00     0.000 S
ATOM     13   O  IDS C   1     117.544  29.484  53.9090  0.00  0.00     0.000 OA
ATOM     14   O  IDS C   1     115.244  28.788  53.7340  0.00  0.00     0.000 OA
ATOM     15   O  IDS C   1     116.680  27.777  55.3820  0.00  0.00     0.000 OA
ENDBRANCH 2 11
BRANCH 5 16
ATOM     16   C  IDS C   1     115.872  33.306  58.9760  0.00  0.00     0.000 C
ATOM     17   O  IDS C   1     116.121  32.890  60.0880  0.00  0.00     0.000 OA
ATOM     18   O  IDS C   1     116.279  34.379  58.6260  0.00  0.00     0.000 OA
ENDBRANCH 5 16
BRANCH 1 19
ATOM     19  O4  SGN C   2     113.280  30.037  58.0590  0.00  0.00     0.000 O
BRANCH 19 23
ATOM     20  C1  SGN C   2     110.936  27.969  60.8250  0.00  0.00     0.000 C
ATOM     21  C2  SGN C   2     111.847  29.068  61.3860  0.00  0.00     0.000 C
ATOM     22  C3  SGN C   2     112.288  29.997  60.2580  0.00  0.00     0.000 C
ATOM     23  C4  SGN C   2     112.977  29.186  59.1660  0.00  0.00     0.000 C
ATOM     24  C5  SGN C   2     112.060  28.051  58.7040  0.00  0.00     0.000 C
ATOM     25  O5  SGN C   2     111.659  27.256  59.8350  0.00  0.00     0.000 O
ATOM     26   O  SGN C   2     113.147  31.014  60.7580  0.00  0.00     0.000 O
ATOM     28  HD  SGN C   2     113.604  31.636  61.1520  0.00  0.00     0.000 HD
BRANCH 21 30
ATOM     28   N  SGN C   2     110.949  29.408  62.4980  0.00  0.00     0.000 N
ATOM     30  HD  SGN C   2     110.975  30.216  62.8070  0.00  0.00     0.000 HD
ATOM     30   S  SGN C   2     111.444  29.328  64.0170  0.00  0.00     0.000 S
ATOM     31   O  SGN C   2     112.628  30.118  64.0690  0.00  0.00     0.000 OA
ATOM     32   O  SGN C   2     110.350  29.636  64.8620  0.00  0.00     0.000 OA
ATOM     33   O  SGN C   2     111.775  27.812  64.2300  0.00  0.00     0.000 OA
ENDBRANCH 21 30
BRANCH 24 34
ATOM     34   C  SGN C   2     112.713  27.102  57.7270  0.00  0.00     0.000 C
ATOM     35   O  SGN C   2     112.159  27.324  56.4180  0.00  0.00     0.000 O
ATOM     36   S  SGN C   2     112.337  26.153  55.3470  0.00  0.00     0.000 S
ATOM     37   O  SGN C   2     111.806  24.972  55.9990  0.00  0.00     0.000 OA
ATOM     38   O  SGN C   2     111.575  26.563  54.1930  0.00  0.00     0.000 OA
ATOM     39   O  SGN C   2     113.760  26.105  55.1180  0.00  0.00     0.000 OA
ENDBRANCH 24 34
BRANCH 20 40
ATOM     40  O4  IDS C   3     109.759  28.340  60.3260  0.00  0.00     0.000 O
BRANCH 40 44
ATOM     41  C1  IDS C   3     106.512  29.316  59.3630  0.00  0.00     0.000 C
ATOM     42  C2  IDS C   3     107.064  29.639  60.7480  0.00  0.00     0.000 C
ATOM     43  C3  IDS C   3     107.604  28.375  61.4130  0.00  0.00     0.000 C
ATOM     44  C4  IDS C   3     108.541  27.610  60.4910  0.00  0.00     0.000 C
ATOM     45  C5  IDS C   3     107.870  27.401  59.1170  0.00  0.00     0.000 C
ATOM     46  O5  IDS C   3     107.501  28.668  58.5680  0.00  0.00     0.000 O
ATOM     47   O  IDS C   3     106.515  27.540  61.7990  0.00  0.00     0.000 O
ATOM     49  HD  IDS C   3     107.022  28.236  61.8980  0.00  0.00     0.000 HD
BRANCH 42 49
ATOM     49   O  IDS C   3     108.165  30.625  60.6410  0.00  0.00     0.000 O
ATOM     50   S  IDS C   3     108.197  31.888  61.6250  0.00  0.00     0.000 S
ATOM     51   O  IDS C   3     108.552  31.307  62.9020  0.00  0.00     0.000 OA
ATOM     52   O  IDS C   3     106.888  32.520  61.6440  0.00  0.00     0.000 OA
ATOM     53   O  IDS C   3     109.220  32.771  61.1050  0.00  0.00     0.000 OA
ENDBRANCH 42 49
BRANCH 45 54
ATOM     54   C  IDS C   3     108.758  26.676  58.1170  0.00  0.00     0.000 C
ATOM     55   O  IDS C   3     109.152  25.565  58.3650  0.00  0.00     0.000 OA
ATOM     56   O  IDS C   3     109.080  27.225  57.0820  0.00  0.00     0.000 OA
ENDBRANCH 45 54
BRANCH 41 57
ATOM     57  O4  SGN C   4     105.300  28.774  59.5410  0.00  0.00     0.000 O
BRANCH 57 61
ATOM     58  C1  SGN C   4     102.021  27.617  57.2090  0.00  0.00     0.000 C
ATOM     59  C2  SGN C   4     103.342  26.869  56.9650  0.00  0.00     0.000 C
ATOM     60  C3  SGN C   4     104.323  27.082  58.1260  0.00  0.00     0.000 C
ATOM     61  C4  SGN C   4     104.509  28.571  58.3670  0.00  0.00     0.000 C
ATOM     62  C5  SGN C   4     103.157  29.253  58.5720  0.00  0.00     0.000 C
ATOM     63  O5  SGN C   4     102.282  28.991  57.4590  0.00  0.00     0.000 O
BRANCH 59 66
ATOM     64   N  SGN C   4     102.925  25.498  56.6570  0.00  0.00     0.000 N
ATOM     66  HD  SGN C   4     103.381  26.194  56.8960  0.00  0.00     0.000 HD
ATOM     66   O  SGN C   4     102.900  23.473  55.3020  0.00  0.00     0.000 OA
ATOM     67   O  SGN C   4     102.860  25.677  54.2150  0.00  0.00     0.000 OA
ATOM     68   S  SGN C   4     103.478  24.773  55.3360  0.00  0.00     0.000 S
ATOM     69   O  SGN C   4     104.890  24.908  55.3100  0.00  0.00     0.000 OA
ENDBRANCH 59 66
BRANCH 62 70
ATOM     70   C  SGN C   4     103.302  30.751  58.6800  0.00  0.00     0.000 C
ATOM     71   S  SGN C   4     104.281  32.812  57.5120  0.00  0.00     0.000 S
ATOM     72   O  SGN C   4     103.037  33.518  57.7460  0.00  0.00     0.000 OA
ATOM     73   O  SGN C   4     105.235  32.957  58.5920  0.00  0.00     0.000 OA
ATOM     74   O  SGN C   4     104.843  33.050  56.2020  0.00  0.00     0.000 OA
ATOM     75   O  SGN C   4     103.876  31.277  57.4770  0.00  0.00     0.000 O
ENDBRANCH 62 70
ENDBRANCH 57 61
ENDBRANCH 41 57
ENDBRANCH 40 44
ENDBRANCH 20 40
ENDBRANCH 19 23
ENDBRANCH 1 19
TORSDOF 14
ENDMDL
MODEL 80
REMARK VINA RESULT:      -0.4    113.469    119.450
ROOT
ATOM      1  C1  IDS C   1      81.680  97.819  35.4000  0.00  0.00     0.000 C
ATOM      2  C2  IDS C   1      81.916  98.243  33.9610  0.00  0.00     0.000 C
ATOM      3  C3  IDS C   1      83.005  97.392  33.3190  0.00  0.00     0.000 C
ATOM      4  C4  IDS C   1      82.724  95.901  33.5080  0.00  0.00     0.000 C
ATOM      5  C5  IDS C   1      82.407  95.602  34.9870  0.00  0.00     0.000 C
ATOM      6  O5  IDS C   1      81.346  96.432  35.4470  0.00  0.00     0.000 O
ATOM      7   O  IDS C   1      84.272  97.738  33.8800  0.00  0.00     0.000 O
ATOM      9  HD  IDS C   1      84.420  96.918  33.6440  0.00  0.00     0.000 HD
ATOM      9   O  IDS C   1      81.600  95.531  32.6950  0.00  0.00     0.000 O
ATOM     11  HD  IDS C   1      81.748  94.711  32.4590  0.00  0.00     0.000 HD
ENDROOT
BRANCH 2 11
ATOM     11   O  IDS C   1      80.679  98.065  33.1670  0.00  0.00     0.000 O
ATOM     12   S  IDS C   1      79.894  99.332  32.5900  0.00  0.00     0.000 S
ATOM     13   O  IDS C   1      79.384  98.830  31.3340  0.00  0.00     0.000 OA
ATOM     14   O  IDS C   1      80.815 100.431  32.4260  0.00  0.00     0.000 OA
ATOM     15   O  IDS C   1      78.864  99.595  33.5640  0.00  0.00     0.000 OA
ENDBRANCH 2 11
BRANCH 5 16
ATOM     16   C  IDS C   1      82.004  94.159  35.2330  0.00  0.00     0.000 C
ATOM     17   O  IDS C   1      81.712  93.818  36.3600  0.00  0.00     0.000 OA
ATOM     18   O  IDS C   1      81.990  93.362  34.3360  0.00  0.00     0.000 OA
ENDBRANCH 5 16
BRANCH 1 19
ATOM     19  O4  SGN C   2      82.516  98.250  36.3490  0.00  0.00     0.000 O
BRANCH 19 23
ATOM     20  C1  SGN C   2      82.883  99.320  40.3670  0.00  0.00     0.000 C
ATOM     21  C2  SGN C   2      82.710  97.826  40.0700  0.00  0.00     0.000 C
ATOM     22  C3  SGN C   2      83.025  97.552  38.6020  0.00  0.00     0.000 C
ATOM     23  C4  SGN C   2      82.136  98.417  37.7160  0.00  0.00     0.000 C
ATOM     24  C5  SGN C   2      82.281  99.889  38.1130  0.00  0.00     0.000 C
ATOM     25  O5  SGN C   2      82.009 100.045  39.5170  0.00  0.00     0.000 O
ATOM     26   O  SGN C   2      82.854  96.172  38.3040  0.00  0.00     0.000 O
ATOM     28  HD  SGN C   2      82.794  95.311  38.2230  0.00  0.00     0.000 HD
BRANCH 21 30
ATOM     28   N  SGN C   2      83.436  97.496  41.3030  0.00  0.00     0.000 N
ATOM     30  HD  SGN C   2      83.966  96.811  41.2910  0.00  0.00     0.000 HD
ATOM     30   S  SGN C   2      82.863  96.423  42.3420  0.00  0.00     0.000 S
ATOM     31   O  SGN C   2      82.620  95.248  41.5740  0.00  0.00     0.000 OA
ATOM     32   O  SGN C   2      83.730  96.371  43.4590  0.00  0.00     0.000 OA
ATOM     33   O  SGN C   2      81.516  97.053  42.8360  0.00  0.00     0.000 OA
ENDBRANCH 21 30
BRANCH 24 34
ATOM     34   C  SGN C   2      81.327 100.810  37.3890  0.00  0.00     0.000 C
ATOM     35   O  SGN C   2      82.022 101.440  36.2990  0.00  0.00     0.000 O
ATOM     36   S  SGN C   2      81.378 102.774  35.7030  0.00  0.00     0.000 S
ATOM     37   O  SGN C   2      81.206 103.645  36.8500  0.00  0.00     0.000 OA
ATOM     38   O  SGN C   2      82.333 103.272  34.7430  0.00  0.00     0.000 OA
ATOM     39   O  SGN C   2      80.139 102.330  35.1140  0.00  0.00     0.000 OA
ENDBRANCH 24 34
BRANCH 20 40
ATOM     40  O4  IDS C   3      84.109  99.828  40.2720  0.00  0.00     0.000 O
BRANCH 40 44
ATOM     41  C1  IDS C   3      87.431 100.999  40.4190  0.00  0.00     0.000 C
ATOM     42  C2  IDS C   3      86.968  99.804  41.2490  0.00  0.00     0.000 C
ATOM     43  C3  IDS C   3      85.714 100.164  42.0430  0.00  0.00     0.000 C
ATOM     44  C4  IDS C   3      84.654 100.805  41.1610  0.00  0.00     0.000 C
ATOM     45  C5  IDS C   3      85.276 101.960  40.3490  0.00  0.00     0.000 C
ATOM     46  O5  IDS C   3      86.376 101.465  39.5820  0.00  0.00     0.000 O
ATOM     47   O  IDS C   3      86.064 101.048  43.1050  0.00  0.00     0.000 O
ATOM     49  HD  IDS C   3      86.036 100.265  42.7360  0.00  0.00     0.000 HD
BRANCH 42 49
ATOM     49   O  IDS C   3      86.656  98.659  40.3630  0.00  0.00     0.000 O
ATOM     50   S  IDS C   3      87.279  97.218  40.6810  0.00  0.00     0.000 S
ATOM     51   O  IDS C   3      86.549  96.789  41.8530  0.00  0.00     0.000 OA
ATOM     52   O  IDS C   3      88.705  97.352  40.9290  0.00  0.00     0.000 OA
ATOM     53   O  IDS C   3      87.005  96.401  39.5170  0.00  0.00     0.000 OA
ENDBRANCH 42 49
BRANCH 45 54
ATOM     54   C  IDS C   3      84.290 102.634  39.4080  0.00  0.00     0.000 C
ATOM     55   O  IDS C   3      84.513 102.656  38.2250  0.00  0.00     0.000 OA
ATOM     56   O  IDS C   3      83.289 103.162  39.8540  0.00  0.00     0.000 OA
ENDBRANCH 45 54
BRANCH 41 57
ATOM     57  O4  SGN C   4      88.076 101.826  41.2500  0.00  0.00     0.000 O
BRANCH 57 61
ATOM     58  C1  SGN C   4      90.411 105.293  41.0150  0.00  0.00     0.000 C
ATOM     59  C2  SGN C   4      88.976 105.388  40.4720  0.00  0.00     0.000 C
ATOM     60  C3  SGN C   4      88.114 104.223  40.9770  0.00  0.00     0.000 C
ATOM     61  C4  SGN C   4      88.797 102.906  40.6490  0.00  0.00     0.000 C
ATOM     62  C5  SGN C   4      90.225 102.894  41.1930  0.00  0.00     0.000 C
ATOM     63  O5  SGN C   4      90.966 104.025  40.6980  0.00  0.00     0.000 O
BRANCH 59 66
ATOM     64   N  SGN C   4      88.593 106.766  40.7950  0.00  0.00     0.000 N
ATOM     66  HD  SGN C   4      88.577 105.918  40.6220  0.00  0.00     0.000 HD
ATOM     66   O  SGN C   4      87.637 108.947  40.2800  0.00  0.00     0.000 OA
ATOM     67   O  SGN C   4      89.009 107.782  38.6050  0.00  0.00     0.000 OA
ATOM     68   S  SGN C   4      87.877 107.676  39.6840  0.00  0.00     0.000 S
ATOM     69   O  SGN C   4      86.789 106.946  39.1410  0.00  0.00     0.000 OA
ENDBRANCH 59 66
BRANCH 62 70
ATOM     70   C  SGN C   4      90.970 101.654  40.7660  0.00  0.00     0.000 C
ATOM     71   S  SGN C   4      91.892 100.408  38.7240  0.00  0.00     0.000 S
ATOM     72   O  SGN C   4      93.131 100.178  39.4410  0.00  0.00     0.000 OA
ATOM     73   O  SGN C   4      90.908  99.365  38.9300  0.00  0.00     0.000 OA
ATOM     74   O  SGN C   4      92.086 100.762  37.3360  0.00  0.00     0.000 OA
ATOM     75   O  SGN C   4      91.288 101.726  39.3710  0.00  0.00     0.000 O
ENDBRANCH 62 70
ENDBRANCH 57 61
ENDBRANCH 41 57
ENDBRANCH 40 44
ENDBRANCH 20 40
ENDBRANCH 19 23
ENDBRANCH 1 19
TORSDOF 14
ENDMDL
MODEL 81
REMARK VINA RESULT:      -0.4     39.597     45.270
ROOT
ATOM      1  C1  IDS C   1      44.867  29.901  23.5770  0.00  0.00     0.000 C
ATOM      2  C2  IDS C   1      44.766  31.020  22.5550  0.00  0.00     0.000 C
ATOM      3  C3  IDS C   1      44.810  30.462  21.1380  0.00  0.00     0.000 C
ATOM      4  C4  IDS C   1      43.793  29.335  20.9560  0.00  0.00     0.000 C
ATOM      5  C5  IDS C   1      43.924  28.309  22.0990  0.00  0.00     0.000 C
ATOM      6  O5  IDS C   1      43.822  28.955  23.3630  0.00  0.00     0.000 O
ATOM      7   O  IDS C   1      46.129  29.995  20.8500  0.00  0.00     0.000 O
ATOM      9  HD  IDS C   1      45.663  29.493  20.3210  0.00  0.00     0.000 HD
ATOM      9   O  IDS C   1      42.470  29.895  20.9670  0.00  0.00     0.000 O
ATOM     11  HD  IDS C   1      42.004  29.392  20.4380  0.00  0.00     0.000 HD
ENDROOT
BRANCH 2 11
ATOM     11   O  IDS C   1      43.484  31.742  22.7140  0.00  0.00     0.000 O
ATOM     12   S  IDS C   1      43.467  33.308  23.0340  0.00  0.00     0.000 S
ATOM     13   O  IDS C   1      42.290  33.753  22.3210  0.00  0.00     0.000 OA
ATOM     14   O  IDS C   1      44.684  33.910  22.5430  0.00  0.00     0.000 OA
ATOM     15   O  IDS C   1      43.334  33.384  24.4670  0.00  0.00     0.000 OA
ENDBRANCH 2 11
BRANCH 5 16
ATOM     16   C  IDS C   1      42.868  27.219  22.0500  0.00  0.00     0.000 C
ATOM     17   O  IDS C   1      43.179  26.122  21.6340  0.00  0.00     0.000 OA
ATOM     18   O  IDS C   1      41.741  27.438  22.3990  0.00  0.00     0.000 OA
ENDBRANCH 5 16
BRANCH 1 19
ATOM     19  O4  SGN C   2      46.069  29.390  23.8620  0.00  0.00     0.000 O
BRANCH 19 23
ATOM     20  C1  SGN C   2      48.530  27.911  26.8920  0.00  0.00     0.000 C
ATOM     21  C2  SGN C   2      47.386  26.999  26.4330  0.00  0.00     0.000 C
ATOM     22  C3  SGN C   2      46.870  27.464  25.0740  0.00  0.00     0.000 C
ATOM     23  C4  SGN C   2      46.437  28.923  25.1610  0.00  0.00     0.000 C
ATOM     24  C5  SGN C   2      47.586  29.775  25.7070  0.00  0.00     0.000 C
ATOM     25  O5  SGN C   2      48.037  29.239  26.9640  0.00  0.00     0.000 O
ATOM     26   O  SGN C   2      45.796  26.638  24.6390  0.00  0.00     0.000 O
ATOM     28  HD  SGN C   2      45.200  26.049  24.4190  0.00  0.00     0.000 HD
BRANCH 21 30
ATOM     28   N  SGN C   2      48.144  25.788  26.7750  0.00  0.00     0.000 N
ATOM     30  HD  SGN C   2      48.020  25.082  26.2900  0.00  0.00     0.000 HD
ATOM     30   S  SGN C   2      47.519  24.657  27.7180  0.00  0.00     0.000 S
ATOM     31   O  SGN C   2      46.272  24.316  27.1210  0.00  0.00     0.000 OA
ATOM     32   O  SGN C   2      48.499  23.657  27.9300  0.00  0.00     0.000 OA
ATOM     33   O  SGN C   2      47.301  25.383  29.0890  0.00  0.00     0.000 OA
ENDBRANCH 21 30
BRANCH 24 34
ATOM     34   C  SGN C   2      47.205  31.213  25.9690  0.00  0.00     0.000 C
ATOM     35   O  SGN C   2      47.751  32.039  24.9250  0.00  0.00     0.000 O
ATOM     36   S  SGN C   2      47.885  33.600  25.2310  0.00  0.00     0.000 S
ATOM     37   O  SGN C   2      48.640  33.670  26.4670  0.00  0.00     0.000 OA
ATOM     38   O  SGN C   2      48.584  34.159  24.1000  0.00  0.00     0.000 OA
ATOM     39   O  SGN C   2      46.520  34.050  25.3520  0.00  0.00     0.000 OA
ENDBRANCH 24 34
BRANCH 20 40
ATOM     40  O4  IDS C   3      49.652  27.899  26.1760  0.00  0.00     0.000 O
BRANCH 40 44
ATOM     41  C1  IDS C   3      52.727  27.635  24.4720  0.00  0.00     0.000 C
ATOM     42  C2  IDS C   3      52.034  26.410  25.0630  0.00  0.00     0.000 C
ATOM     43  C3  IDS C   3      51.689  26.653  26.5300  0.00  0.00     0.000 C
ATOM     44  C4  IDS C   3      50.968  27.978  26.7280  0.00  0.00     0.000 C
ATOM     45  C5  IDS C   3      51.756  29.111  26.0380  0.00  0.00     0.000 C
ATOM     46  O5  IDS C   3      51.925  28.799  24.6530  0.00  0.00     0.000 O
ATOM     47   O  IDS C   3      52.883  26.629  27.3080  0.00  0.00     0.000 O
ATOM     49  HD  IDS C   3      52.253  26.242  26.8560  0.00  0.00     0.000 HD
BRANCH 42 49
ATOM     49   O  IDS C   3      50.784  26.125  24.3220  0.00  0.00     0.000 O
ATOM     50   S  IDS C   3      50.416  24.614  23.9400  0.00  0.00     0.000 S
ATOM     51   O  IDS C   3      50.053  24.026  25.2110  0.00  0.00     0.000 OA
ATOM     52   O  IDS C   3      51.573  23.972  23.3380  0.00  0.00     0.000 OA
ATOM     53   O  IDS C   3      49.301  24.697  23.0190  0.00  0.00     0.000 OA
ENDBRANCH 42 49
BRANCH 45 54
ATOM     54   C  IDS C   3      51.082  30.469  26.1530  0.00  0.00     0.000 C
ATOM     55   O  IDS C   3      50.833  30.921  27.2410  0.00  0.00     0.000 OA
ATOM     56   O  IDS C   3      50.781  31.085  25.1490  0.00  0.00     0.000 OA
ENDBRANCH 45 54
BRANCH 41 57
ATOM     57  O4  SGN C   4      54.001  27.599  24.8790  0.00  0.00     0.000 O
BRANCH 57 61
ATOM     58  C1  SGN C   4      57.611  29.542  24.0250  0.00  0.00     0.000 C
ATOM     59  C2  SGN C   4      56.498  30.395  24.6550  0.00  0.00     0.000 C
ATOM     60  C3  SGN C   4      55.413  29.513  25.2870  0.00  0.00     0.000 C
ATOM     61  C4  SGN C   4      54.901  28.521  24.2560  0.00  0.00     0.000 C
ATOM     62  C5  SGN C   4      56.060  27.730  23.6520  0.00  0.00     0.000 C
ATOM     63  O5  SGN C   4      57.049  28.621  23.1010  0.00  0.00     0.000 O
BRANCH 59 66
ATOM     64   N  SGN C   4      57.216  31.334  25.5230  0.00  0.00     0.000 N
ATOM     66  HD  SGN C   4      56.608  30.834  25.1640  0.00  0.00     0.000 HD
ATOM     66   O  SGN C   4      57.765  33.556  26.3590  0.00  0.00     0.000 OA
ATOM     67   O  SGN C   4      57.416  33.202  23.9510  0.00  0.00     0.000 OA
ATOM     68   S  SGN C   4      56.924  32.908  25.4100  0.00  0.00     0.000 S
ATOM     69   O  SGN C   4      55.521  33.108  25.4730  0.00  0.00     0.000 OA
ENDBRANCH 59 66
BRANCH 62 70
ATOM     70   C  SGN C   4      55.595  26.835  22.5310  0.00  0.00     0.000 C
ATOM     71   S  SGN C   4      54.111  26.755  20.4420  0.00  0.00     0.000 S
ATOM     72   O  SGN C   4      55.182  26.091  19.7240  0.00  0.00     0.000 OA
ATOM     73   O  SGN C   4      53.222  25.836  21.1240  0.00  0.00     0.000 OA
ATOM     74   O  SGN C   4      53.425  27.757  19.6600  0.00  0.00     0.000 OA
ATOM     75   O  SGN C   4      54.842  27.592  21.5760  0.00  0.00     0.000 O
ENDBRANCH 62 70
ENDBRANCH 57 61
ENDBRANCH 41 57
ENDBRANCH 40 44
ENDBRANCH 20 40
ENDBRANCH 19 23
ENDBRANCH 1 19
TORSDOF 14
ENDMDL
MODEL 82
REMARK VINA RESULT:      -0.4     99.005    104.988
ROOT
ATOM      1  C1  IDS C   1     102.161  42.979  71.5430  0.00  0.00     0.000 C
ATOM      2  C2  IDS C   1     101.454  44.230  72.0350  0.00  0.00     0.000 C
ATOM      3  C3  IDS C   1     101.339  44.224  73.5540  0.00  0.00     0.000 C
ATOM      4  C4  IDS C   1     102.695  43.957  74.2090  0.00  0.00     0.000 C
ATOM      5  C5  IDS C   1     103.362  42.723  73.5700  0.00  0.00     0.000 C
ATOM      6  O5  IDS C   1     103.445  42.877  72.1570  0.00  0.00     0.000 O
ATOM      7   O  IDS C   1     100.387  43.239  73.9560  0.00  0.00     0.000 O
ATOM      9  HD  IDS C   1     100.891  43.269  74.6590  0.00  0.00     0.000 HD
ATOM      9   O  IDS C   1     103.537  45.105  74.0230  0.00  0.00     0.000 O
ATOM     11  HD  IDS C   1     104.042  45.135  74.7260  0.00  0.00     0.000 HD
ENDROOT
BRANCH 2 11
ATOM     11   O  IDS C   1     102.220  45.435  71.6460  0.00  0.00     0.000 O
ATOM     12   S  IDS C   1     101.557  46.556  70.7190  0.00  0.00     0.000 S
ATOM     13   O  IDS C   1     102.151  47.770  71.2340  0.00  0.00     0.000 OA
ATOM     14   O  IDS C   1     100.123  46.519  70.8740  0.00  0.00     0.000 OA
ATOM     15   O  IDS C   1     101.992  46.225  69.3840  0.00  0.00     0.000 OA
ENDBRANCH 2 11
BRANCH 5 16
ATOM     16   C  IDS C   1     104.764  42.463  74.0900  0.00  0.00     0.000 C
ATOM     17   O  IDS C   1     105.681  43.130  73.6590  0.00  0.00     0.000 OA
ATOM     18   O  IDS C   1     104.970  41.602  74.9000  0.00  0.00     0.000 OA
ENDBRANCH 5 16
BRANCH 1 19
ATOM     19  O4  SGN C   2     101.470  41.840  71.4440  0.00  0.00     0.000 O
BRANCH 19 23
ATOM     20  C1  SGN C   2     100.867  38.387  69.1770  0.00  0.00     0.000 C
ATOM     21  C2  SGN C   2     102.151  38.441  70.0130  0.00  0.00     0.000 C
ATOM     22  C3  SGN C   2     102.022  39.519  71.0870  0.00  0.00     0.000 C
ATOM     23  C4  SGN C   2     101.710  40.860  70.4320  0.00  0.00     0.000 C
ATOM     24  C5  SGN C   2     100.471  40.728  69.5410  0.00  0.00     0.000 C
ATOM     25  O5  SGN C   2     100.664  39.663  68.5930  0.00  0.00     0.000 O
ATOM     26   O  SGN C   2     103.212  39.594  71.8630  0.00  0.00     0.000 O
ATOM     28  HD  SGN C   2     103.940  39.528  72.3280  0.00  0.00     0.000 HD
BRANCH 21 30
ATOM     28   N  SGN C   2     102.219  36.994  70.2560  0.00  0.00     0.000 N
ATOM     30  HD  SGN C   2     102.630  36.721  70.9670  0.00  0.00     0.000 HD
ATOM     30   S  SGN C   2     103.483  36.133  69.7850  0.00  0.00     0.000 S
ATOM     31   O  SGN C   2     104.616  36.789  70.3470  0.00  0.00     0.000 OA
ATOM     32   O  SGN C   2     103.235  34.772  70.0830  0.00  0.00     0.000 OA
ATOM     33   O  SGN C   2     103.477  36.270  68.2250  0.00  0.00     0.000 OA
ENDBRANCH 21 30
BRANCH 24 34
ATOM     34   C  SGN C   2     100.169  41.968  68.7340  0.00  0.00     0.000 C
ATOM     35   O  SGN C   2      99.040  42.642  69.3180  0.00  0.00     0.000 O
ATOM     36   S  SGN C   2      98.259  43.683  68.3930  0.00  0.00     0.000 S
ATOM     37   O  SGN C   2      97.921  42.933  67.1990  0.00  0.00     0.000 OA
ATOM     38   O  SGN C   2      97.107  44.094  69.1570  0.00  0.00     0.000 OA
ATOM     39   O  SGN C   2      99.217  44.738  68.1700  0.00  0.00     0.000 OA
ENDBRANCH 24 34
BRANCH 20 40
ATOM     40  O4  IDS C   3      99.749  38.003  69.7900  0.00  0.00     0.000 O
BRANCH 40 44
ATOM     41  C1  IDS C   3      96.863  36.687  71.3270  0.00  0.00     0.000 C
ATOM     42  C2  IDS C   3      98.181  35.919  71.3150  0.00  0.00     0.000 C
ATOM     43  C3  IDS C   3      98.725  35.820  69.8920  0.00  0.00     0.000 C
ATOM     44  C4  IDS C   3      98.744  37.174  69.2010  0.00  0.00     0.000 C
ATOM     45  C5  IDS C   3      97.365  37.853  69.3360  0.00  0.00     0.000 C
ATOM     46  O5  IDS C   3      97.024  37.966  70.7190  0.00  0.00     0.000 O
ATOM     47   O  IDS C   3      97.929  34.904  69.1440  0.00  0.00     0.000 O
ATOM     49  HD  IDS C   3      98.530  35.090  69.7390  0.00  0.00     0.000 HD
BRANCH 42 49
ATOM     49   O  IDS C   3      99.183  36.613  72.1580  0.00  0.00     0.000 O
ATOM     50   S  IDS C   3     100.095  35.765  73.1660  0.00  0.00     0.000 S
ATOM     51   O  IDS C   3     101.003  35.064  72.2850  0.00  0.00     0.000 OA
ATOM     52   O  IDS C   3      99.255  34.863  73.9350  0.00  0.00     0.000 OA
ATOM     53   O  IDS C   3     100.764  36.735  74.0070  0.00  0.00     0.000 OA
ENDBRANCH 42 49
BRANCH 45 54
ATOM     54   C  IDS C   3      97.309  39.234  68.7040  0.00  0.00     0.000 C
ATOM     55   O  IDS C   3      97.576  39.368  67.5380  0.00  0.00     0.000 OA
ATOM     56   O  IDS C   3      97.012  40.200  69.3810  0.00  0.00     0.000 OA
ENDBRANCH 45 54
BRANCH 41 57
ATOM     57  O4  SGN C   4      95.912  35.839  70.9190  0.00  0.00     0.000 O
BRANCH 57 61
ATOM     58  C1  SGN C   4      91.732  35.695  70.7130  0.00  0.00     0.000 C
ATOM     59  C2  SGN C   4      92.432  36.738  69.8280  0.00  0.00     0.000 C
ATOM     60  C3  SGN C   4      93.927  36.424  69.6770  0.00  0.00     0.000 C
ATOM     61  C4  SGN C   4      94.557  36.280  71.0520  0.00  0.00     0.000 C
ATOM     62  C5  SGN C   4      93.794  35.251  71.8860  0.00  0.00     0.000 C
ATOM     63  O5  SGN C   4      92.398  35.596  71.9640  0.00  0.00     0.000 O
BRANCH 59 66
ATOM     64   N  SGN C   4      91.611  36.786  68.6130  0.00  0.00     0.000 N
ATOM     66  HD  SGN C   4      92.266  36.847  69.1770  0.00  0.00     0.000 HD
ATOM     66   O  SGN C   4      90.321  37.928  66.8920  0.00  0.00     0.000 OA
ATOM     67   O  SGN C   4      90.154  38.654  69.2340  0.00  0.00     0.000 OA
ATOM     68   S  SGN C   4      91.088  38.198  68.0600  0.00  0.00     0.000 S
ATOM     69   O  SGN C   4      92.192  39.085  67.9790  0.00  0.00     0.000 OA
ENDBRANCH 59 66
BRANCH 62 70
ATOM     70   C  SGN C   4      94.316  35.187  73.2990  0.00  0.00     0.000 C
ATOM     71   S  SGN C   4      95.053  36.627  75.2880  0.00  0.00     0.000 S
ATOM     72   O  SGN C   4      94.280  35.777  76.1720  0.00  0.00     0.000 OA
ATOM     73   O  SGN C   4      96.415  36.170  75.0990  0.00  0.00     0.000 OA
ATOM     74   O  SGN C   4      94.949  38.033  75.6020  0.00  0.00     0.000 OA
ATOM     75   O  SGN C   4      94.339  36.498  73.8750  0.00  0.00     0.000 O
ENDBRANCH 62 70
ENDBRANCH 57 61
ENDBRANCH 41 57
ENDBRANCH 40 44
ENDBRANCH 20 40
ENDBRANCH 19 23
ENDBRANCH 1 19
TORSDOF 14
ENDMDL
MODEL 83
REMARK VINA RESULT:      -0.4    114.095    119.040
ROOT
ATOM      1  C1  IDS C   1     110.763  27.244  85.3250  0.00  0.00     0.000 C
ATOM      2  C2  IDS C   1     109.964  26.385  84.3610  0.00  0.00     0.000 C
ATOM      3  C3  IDS C   1     110.771  26.092  83.1020  0.00  0.00     0.000 C
ATOM      4  C4  IDS C   1     112.155  25.544  83.4490  0.00  0.00     0.000 C
ATOM      5  C5  IDS C   1     112.835  26.441  84.5030  0.00  0.00     0.000 C
ATOM      6  O5  IDS C   1     111.994  26.597  85.6420  0.00  0.00     0.000 O
ATOM      7   O  IDS C   1     110.885  27.283  82.3220  0.00  0.00     0.000 O
ATOM      9  HD  IDS C   1     111.601  26.861  82.0760  0.00  0.00     0.000 HD
ATOM      9   O  IDS C   1     112.013  24.215  83.9750  0.00  0.00     0.000 O
ATOM     11  HD  IDS C   1     112.729  23.794  83.7290  0.00  0.00     0.000 HD
ENDROOT
BRANCH 2 11
ATOM     11   O  IDS C   1     109.626  25.089  84.9910  0.00  0.00     0.000 O
ATOM     12   S  IDS C   1     108.101  24.659  85.2010  0.00  0.00     0.000 S
ATOM     13   O  IDS C   1     108.157  23.227  85.0100  0.00  0.00     0.000 OA
ATOM     14   O  IDS C   1     107.277  25.326  84.2220  0.00  0.00     0.000 OA
ATOM     15   O  IDS C   1     107.799  25.047  86.5560  0.00  0.00     0.000 OA
ENDBRANCH 2 11
BRANCH 5 16
ATOM     16   C  IDS C   1     114.168  25.897  84.9840  0.00  0.00     0.000 C
ATOM     17   O  IDS C   1     115.188  26.429  84.6000  0.00  0.00     0.000 OA
ATOM     18   O  IDS C   1     114.217  24.948  85.7170  0.00  0.00     0.000 OA
ENDBRANCH 5 16
BRANCH 1 19
ATOM     19  O4  SGN C   2     110.832  28.562  85.1160  0.00  0.00     0.000 O
BRANCH 19 23
ATOM     20  C1  SGN C   2     110.901  32.320  86.9310  0.00  0.00     0.000 C
ATOM     21  C2  SGN C   2     112.181  31.483  87.0410  0.00  0.00     0.000 C
ATOM     22  C3  SGN C   2     112.162  30.373  85.9940  0.00  0.00     0.000 C
ATOM     23  C4  SGN C   2     110.909  29.523  86.1690  0.00  0.00     0.000 C
ATOM     24  C5  SGN C   2     109.666  30.418  86.1390  0.00  0.00     0.000 C
ATOM     25  O5  SGN C   2     109.791  31.459  87.1250  0.00  0.00     0.000 O
ATOM     26   O  SGN C   2     113.337  29.575  86.0920  0.00  0.00     0.000 O
ATOM     28  HD  SGN C   2     114.106  29.186  86.1730  0.00  0.00     0.000 HD
BRANCH 21 30
ATOM     28   N  SGN C   2     112.931  32.738  87.1880  0.00  0.00     0.000 N
ATOM     30  HD  SGN C   2     113.685  32.812  86.7690  0.00  0.00     0.000 HD
ATOM     30   S  SGN C   2     114.083  32.891  88.2870  0.00  0.00     0.000 S
ATOM     31   O  SGN C   2     114.971  31.801  88.0560  0.00  0.00     0.000 OA
ATOM     32   O  SGN C   2     114.569  34.220  88.2460  0.00  0.00     0.000 OA
ATOM     33   O  SGN C   2     113.333  32.720  89.6520  0.00  0.00     0.000 OA
ENDBRANCH 21 30
BRANCH 24 34
ATOM     34   C  SGN C   2     108.383  29.685  86.4520  0.00  0.00     0.000 C
ATOM     35   O  SGN C   2     107.651  29.481  85.2310  0.00  0.00     0.000 O
ATOM     36   S  SGN C   2     106.092  29.166  85.3640  0.00  0.00     0.000 S
ATOM     37   O  SGN C   2     105.564  30.249  86.1710  0.00  0.00     0.000 OA
ATOM     38   O  SGN C   2     105.581  29.155  84.0150  0.00  0.00     0.000 OA
ATOM     39   O  SGN C   2     106.050  27.879  86.0130  0.00  0.00     0.000 OA
ENDBRANCH 24 34
BRANCH 20 40
ATOM     40  O4  IDS C   3     110.720  33.024  85.8160  0.00  0.00     0.000 O
BRANCH 40 44
ATOM     41  C1  IDS C   3     110.418  35.147  83.0180  0.00  0.00     0.000 C
ATOM     42  C2  IDS C   3     111.634  35.208  83.9380  0.00  0.00     0.000 C
ATOM     43  C3  IDS C   3     111.193  35.353  85.3930  0.00  0.00     0.000 C
ATOM     44  C4  IDS C   3     110.134  34.327  85.7650  0.00  0.00     0.000 C
ATOM     45  C5  IDS C   3     108.996  34.345  84.7230  0.00  0.00     0.000 C
ATOM     46  O5  IDS C   3     109.536  34.103  83.4220  0.00  0.00     0.000 O
ATOM     47   O  IDS C   3     110.689  36.670  85.6050  0.00  0.00     0.000 O
ATOM     49  HD  IDS C   3     111.335  36.105  85.4870  0.00  0.00     0.000 HD
BRANCH 42 49
ATOM     49   O  IDS C   3     112.434  33.968  83.8080  0.00  0.00     0.000 O
ATOM     50   S  IDS C   3     114.031  34.059  83.7240  0.00  0.00     0.000 S
ATOM     51   O  IDS C   3     114.416  34.424  85.0700  0.00  0.00     0.000 OA
ATOM     52   O  IDS C   3     114.407  35.066  82.7440  0.00  0.00     0.000 OA
ATOM     53   O  IDS C   3     114.486  32.738  83.3470  0.00  0.00     0.000 OA
ENDBRANCH 42 49
BRANCH 45 54
ATOM     54   C  IDS C   3     107.910  33.317  84.9990  0.00  0.00     0.000 C
ATOM     55   O  IDS C   3     107.334  33.327  86.0560  0.00  0.00     0.000 OA
ATOM     56   O  IDS C   3     107.639  32.480  84.1600  0.00  0.00     0.000 OA
ENDBRANCH 45 54
BRANCH 41 57
ATOM     57  O4  SGN C   4     109.983  36.403  82.8620  0.00  0.00     0.000 O
BRANCH 57 61
ATOM     58  C1  SGN C   4     107.262  38.492  80.4600  0.00  0.00     0.000 C
ATOM     59  C2  SGN C   4     106.674  37.447  81.4230  0.00  0.00     0.000 C
ATOM     60  C3  SGN C   4     107.688  37.062  82.5090  0.00  0.00     0.000 C
ATOM     61  C4  SGN C   4     108.987  36.618  81.8570  0.00  0.00     0.000 C
ATOM     62  C5  SGN C   4     109.496  37.688  80.8940  0.00  0.00     0.000 C
ATOM     63  O5  SGN C   4     108.487  38.017  79.9200  0.00  0.00     0.000 O
BRANCH 59 66
ATOM     64   N  SGN C   4     105.397  38.030  81.8480  0.00  0.00     0.000 N
ATOM     66  HD  SGN C   4     106.125  37.561  81.8070  0.00  0.00     0.000 HD
ATOM     66   O  SGN C   4     102.989  37.986  82.2120  0.00  0.00     0.000 OA
ATOM     67   O  SGN C   4     103.943  36.961  80.1920  0.00  0.00     0.000 OA
ATOM     68   S  SGN C   4     104.051  37.163  81.7430  0.00  0.00     0.000 S
ATOM     69   O  SGN C   4     104.280  35.905  82.3570  0.00  0.00     0.000 OA
ENDBRANCH 59 66
BRANCH 62 70
ATOM     70   C  SGN C   4     110.711  37.217  80.1330  0.00  0.00     0.000 C
ATOM     71   S  SGN C   4     111.687  35.227  78.8460  0.00  0.00     0.000 S
ATOM     72   O  SGN C   4     112.131  36.135  77.8070  0.00  0.00     0.000 OA
ATOM     73   O  SGN C   4     112.664  35.040  79.9000  0.00  0.00     0.000 OA
ATOM     74   O  SGN C   4     111.135  33.992  78.3380  0.00  0.00     0.000 OA
ATOM     75   O  SGN C   4     110.443  35.953  79.5150  0.00  0.00     0.000 O
ENDBRANCH 62 70
ENDBRANCH 57 61
ENDBRANCH 41 57
ENDBRANCH 40 44
ENDBRANCH 20 40
ENDBRANCH 19 23
ENDBRANCH 1 19
TORSDOF 14
ENDMDL
MODEL 84
REMARK VINA RESULT:      -0.3    109.304    113.886
ROOT
ATOM      1  C1  IDS C   1      66.305  88.291  79.4890  0.00  0.00     0.000 C
ATOM      2  C2  IDS C   1      66.112  87.836  78.0530  0.00  0.00     0.000 C
ATOM      3  C3  IDS C   1      66.936  88.693  77.1000  0.00  0.00     0.000 C
ATOM      4  C4  IDS C   1      68.394  88.778  77.5530  0.00  0.00     0.000 C
ATOM      5  C5  IDS C   1      68.467  89.154  79.0470  0.00  0.00     0.000 C
ATOM      6  O5  IDS C   1      67.691  88.250  79.8270  0.00  0.00     0.000 O
ATOM      7   O  IDS C   1      66.362  89.999  77.0160  0.00  0.00     0.000 O
ATOM      9  HD  IDS C   1      67.189  90.175  76.8300  0.00  0.00     0.000 HD
ATOM      9   O  IDS C   1      69.020  87.501  77.3520  0.00  0.00     0.000 O
ATOM     11  HD  IDS C   1      69.847  87.678  77.1670  0.00  0.00     0.000 HD
ENDROOT
BRANCH 2 11
ATOM     11   O  IDS C   1      66.558  86.434  77.8970  0.00  0.00     0.000 O
ATOM     12   S  IDS C   1      65.539  85.306  77.4050  0.00  0.00     0.000 S
ATOM     13   O  IDS C   1      66.394  84.440  76.6240  0.00  0.00     0.000 OA
ATOM     14   O  IDS C   1      64.490  85.916  76.6250  0.00  0.00     0.000 OA
ATOM     15   O  IDS C   1      65.060  84.695  78.6210  0.00  0.00     0.000 OA
ENDBRANCH 2 11
BRANCH 5 16
ATOM     16   C  IDS C   1      69.881  89.145  79.5990  0.00  0.00     0.000 C
ATOM     17   O  IDS C   1      70.375  88.086  79.9240  0.00  0.00     0.000 OA
ATOM     18   O  IDS C   1      70.497  90.166  79.7290  0.00  0.00     0.000 OA
ENDBRANCH 5 16
BRANCH 1 19
ATOM     19  O4  SGN C   2      65.628  89.355  79.9300  0.00  0.00     0.000 O
BRANCH 19 23
ATOM     20  C1  SGN C   2      63.577  91.010  83.1670  0.00  0.00     0.000 C
ATOM     21  C2  SGN C   2      65.106  90.969  83.2740  0.00  0.00     0.000 C
ATOM     22  C3  SGN C   2      65.714  90.759  81.8890  0.00  0.00     0.000 C
ATOM     23  C4  SGN C   2      65.151  89.485  81.2700  0.00  0.00     0.000 C
ATOM     24  C5  SGN C   2      63.621  89.541  81.2680  0.00  0.00     0.000 C
ATOM     25  O5  SGN C   2      63.139  89.785  82.6020  0.00  0.00     0.000 O
ATOM     26   O  SGN C   2      67.133  90.703  81.9720  0.00  0.00     0.000 O
ATOM     28  HD  SGN C   2      67.989  90.749  82.0990  0.00  0.00     0.000 HD
BRANCH 21 30
ATOM     28   N  SGN C   2      65.171  92.177  84.1070  0.00  0.00     0.000 N
ATOM     30  HD  SGN C   2      65.879  92.673  84.0490  0.00  0.00     0.000 HD
ATOM     30   S  SGN C   2      65.891  92.161  85.5350  0.00  0.00     0.000 S
ATOM     31   O  SGN C   2      67.198  91.649  85.2920  0.00  0.00     0.000 OA
ATOM     32   O  SGN C   2      65.731  93.434  86.1340  0.00  0.00     0.000 OA
ATOM     33   O  SGN C   2      65.043  91.149  86.3780  0.00  0.00     0.000 OA
ENDBRANCH 21 30
BRANCH 24 34
ATOM     34   C  SGN C   2      62.968  88.258  80.8080  0.00  0.00     0.000 C
ATOM     35   O  SGN C   2      62.456  88.446  79.4760  0.00  0.00     0.000 O
ATOM     36   S  SGN C   2      61.338  87.421  78.9780  0.00  0.00     0.000 S
ATOM     37   O  SGN C   2      60.309  87.473  79.9970  0.00  0.00     0.000 OA
ATOM     38   O  SGN C   2      60.901  87.916  77.6950  0.00  0.00     0.000 OA
ATOM     39   O  SGN C   2      62.030  86.157  78.9090  0.00  0.00     0.000 OA
ENDBRANCH 24 34
BRANCH 20 40
ATOM     40  O4  IDS C   3      63.034  92.022  82.4940  0.00  0.00     0.000 O
BRANCH 40 44
ATOM     41  C1  IDS C   3      61.652  94.932  81.0610  0.00  0.00     0.000 C
ATOM     42  C2  IDS C   3      62.641  95.005  82.2210  0.00  0.00     0.000 C
ATOM     43  C3  IDS C   3      62.183  94.106  83.3670  0.00  0.00     0.000 C
ATOM     44  C4  IDS C   3      61.840  92.706  82.8810  0.00  0.00     0.000 C
ATOM     45  C5  IDS C   3      60.875  92.790  81.6790  0.00  0.00     0.000 C
ATOM     46  O5  IDS C   3      61.467  93.581  80.6460  0.00  0.00     0.000 O
ATOM     47   O  IDS C   3      61.050  94.690  84.0040  0.00  0.00     0.000 O
ATOM     49  HD  IDS C   3      61.899  94.646  83.8370  0.00  0.00     0.000 HD
BRANCH 42 49
ATOM     49   O  IDS C   3      63.982  94.561  81.7770  0.00  0.00     0.000 O
ATOM     50   S  IDS C   3      65.263  95.474  82.0850  0.00  0.00     0.000 S
ATOM     51   O  IDS C   3      65.446  95.321  83.5110  0.00  0.00     0.000 OA
ATOM     52   O  IDS C   3      64.980  96.848  81.7030  0.00  0.00     0.000 OA
ATOM     53   O  IDS C   3      66.349  94.908  81.3130  0.00  0.00     0.000 OA
ENDBRANCH 42 49
BRANCH 45 54
ATOM     54   C  IDS C   3      60.510  91.430  81.1040  0.00  0.00     0.000 C
ATOM     55   O  IDS C   3      60.646  91.225  79.9260  0.00  0.00     0.000 OA
ATOM     56   O  IDS C   3      60.067  90.563  81.8320  0.00  0.00     0.000 OA
ENDBRANCH 45 54
BRANCH 41 57
ATOM     57  O4  SGN C   4      60.611  95.708  81.3840  0.00  0.00     0.000 O
BRANCH 57 61
ATOM     58  C1  SGN C   4      57.036  97.016  79.6400  0.00  0.00     0.000 C
ATOM     59  C2  SGN C   4      57.101  95.538  80.0580  0.00  0.00     0.000 C
ATOM     60  C3  SGN C   4      58.261  95.288  81.0320  0.00  0.00     0.000 C
ATOM     61  C4  SGN C   4      59.555  95.799  80.4220  0.00  0.00     0.000 C
ATOM     62  C5  SGN C   4      59.409  97.262  80.0040  0.00  0.00     0.000 C
ATOM     63  O5  SGN C   4      58.290  97.425  79.1120  0.00  0.00     0.000 O
BRANCH 59 66
ATOM     64   N  SGN C   4      55.741  95.234  80.5140  0.00  0.00     0.000 N
ATOM     66  HD  SGN C   4      56.597  95.221  80.3870  0.00  0.00     0.000 HD
ATOM     66   O  SGN C   4      53.686  93.926  80.5410  0.00  0.00     0.000 OA
ATOM     67   O  SGN C   4      54.844  94.347  78.4140  0.00  0.00     0.000 OA
ATOM     68   S  SGN C   4      54.970  93.955  79.9270  0.00  0.00     0.000 S
ATOM     69   O  SGN C   4      55.822  92.828  80.0420  0.00  0.00     0.000 OA
ENDBRANCH 59 66
BRANCH 62 70
ATOM     70   C  SGN C   4      60.634  97.754  79.2740  0.00  0.00     0.000 C
ATOM     71   S  SGN C   4      62.351  97.124  77.4780  0.00  0.00     0.000 S
ATOM     72   O  SGN C   4      62.211  98.446  76.9000  0.00  0.00     0.000 OA
ATOM     73   O  SGN C   4      63.375  97.049  78.5000  0.00  0.00     0.000 OA
ATOM     74   O  SGN C   4      62.432  96.069  76.4940  0.00  0.00     0.000 OA
ATOM     75   O  SGN C   4      60.969  96.854  78.2110  0.00  0.00     0.000 O
ENDBRANCH 62 70
ENDBRANCH 57 61
ENDBRANCH 41 57
ENDBRANCH 40 44
ENDBRANCH 20 40
ENDBRANCH 19 23
ENDBRANCH 1 19
TORSDOF 14
ENDMDL
MODEL 85
REMARK VINA RESULT:      -0.3     76.999     82.398
ROOT
ATOM      1  C1  IDS C   1      91.423  34.501  17.8910  0.00  0.00     0.000 C
ATOM      2  C2  IDS C   1      91.951  35.242  16.6760  0.00  0.00     0.000 C
ATOM      3  C3  IDS C   1      92.635  36.540  17.0890  0.00  0.00     0.000 C
ATOM      4  C4  IDS C   1      93.670  36.294  18.1860  0.00  0.00     0.000 C
ATOM      5  C5  IDS C   1      93.052  35.455  19.3230  0.00  0.00     0.000 C
ATOM      6  O5  IDS C   1      92.489  34.254  18.8070  0.00  0.00     0.000 O
ATOM      7   O  IDS C   1      91.651  37.477  17.5300  0.00  0.00     0.000 O
ATOM      9  HD  IDS C   1      92.342  37.750  17.9750  0.00  0.00     0.000 HD
ATOM      9   O  IDS C   1      94.786  35.587  17.6250  0.00  0.00     0.000 O
ATOM     11  HD  IDS C   1      95.478  35.860  18.0700  0.00  0.00     0.000 HD
ENDROOT
BRANCH 2 11
ATOM     11   O  IDS C   1      92.951  34.413  15.9670  0.00  0.00     0.000 O
ATOM     12   S  IDS C   1      92.707  33.959  14.4540  0.00  0.00     0.000 S
ATOM     13   O  IDS C   1      94.047  33.969  13.9110  0.00  0.00     0.000 OA
ATOM     14   O  IDS C   1      91.829  34.904  13.8070  0.00  0.00     0.000 OA
ATOM     15   O  IDS C   1      92.140  32.638  14.5600  0.00  0.00     0.000 OA
ENDBRANCH 2 11
BRANCH 5 16
ATOM     16   C  IDS C   1      94.053  35.072  20.3980  0.00  0.00     0.000 C
ATOM     17   O  IDS C   1      93.813  34.118  21.1080  0.00  0.00     0.000 OA
ATOM     18   O  IDS C   1      95.059  35.707  20.5570  0.00  0.00     0.000 OA
ENDBRANCH 5 16
BRANCH 1 19
ATOM     19  O4  SGN C   2      90.265  34.887  18.4340  0.00  0.00     0.000 O
BRANCH 19 23
ATOM     20  C1  SGN C   2      86.735  33.596  20.2500  0.00  0.00     0.000 C
ATOM     21  C2  SGN C   2      88.006  33.542  21.1070  0.00  0.00     0.000 C
ATOM     22  C3  SGN C   2      89.084  34.426  20.4860  0.00  0.00     0.000 C
ATOM     23  C4  SGN C   2      89.345  33.985  19.0510  0.00  0.00     0.000 C
ATOM     24  C5  SGN C   2      88.032  33.973  18.2640  0.00  0.00     0.000 C
ATOM     25  O5  SGN C   2      87.063  33.154  18.9440  0.00  0.00     0.000 O
ATOM     26   O  SGN C   2      90.277  34.376  21.2610  0.00  0.00     0.000 O
ATOM     28  HD  SGN C   2      90.936  34.344  21.8220  0.00  0.00     0.000 HD
BRANCH 21 30
ATOM     28   N  SGN C   2      87.133  33.634  22.2860  0.00  0.00     0.000 N
ATOM     30  HD  SGN C   2      87.371  34.166  22.9260  0.00  0.00     0.000 HD
ATOM     30   S  SGN C   2      87.398  32.739  23.5850  0.00  0.00     0.000 S
ATOM     31   O  SGN C   2      88.753  32.989  23.9440  0.00  0.00     0.000 OA
ATOM     32   O  SGN C   2      86.362  32.985  24.5180  0.00  0.00     0.000 OA
ATOM     33   O  SGN C   2      87.217  31.268  23.0770  0.00  0.00     0.000 OA
ENDBRANCH 21 30
BRANCH 24 34
ATOM     34   C  SGN C   2      88.165  33.407  16.8700  0.00  0.00     0.000 C
ATOM     35   O  SGN C   2      88.113  34.487  15.9200  0.00  0.00     0.000 O
ATOM     36   S  SGN C   2      87.761  34.108  14.4100  0.00  0.00     0.000 S
ATOM     37   O  SGN C   2      86.520  33.364  14.4950  0.00  0.00     0.000 OA
ATOM     38   O  SGN C   2      87.630  35.365  13.7140  0.00  0.00     0.000 OA
ATOM     39   O  SGN C   2      88.888  33.319  13.9770  0.00  0.00     0.000 OA
ENDBRANCH 24 34
BRANCH 20 40
ATOM     40  O4  IDS C   3      86.096  34.761  20.1710  0.00  0.00     0.000 O
BRANCH 40 44
ATOM     41  C1  IDS C   3      84.236  37.750  20.3470  0.00  0.00     0.000 C
ATOM     42  C2  IDS C   3      84.642  36.988  21.6050  0.00  0.00     0.000 C
ATOM     43  C3  IDS C   3      84.227  35.523  21.4950  0.00  0.00     0.000 C
ATOM     44  C4  IDS C   3      84.674  34.908  20.1780  0.00  0.00     0.000 C
ATOM     45  C5  IDS C   3      84.237  35.808  19.0030  0.00  0.00     0.000 C
ATOM     46  O5  IDS C   3      84.772  37.121  19.1850  0.00  0.00     0.000 O
ATOM     47   O  IDS C   3      82.811  35.421  21.6230  0.00  0.00     0.000 O
ATOM     49  HD  IDS C   3      83.604  35.540  21.9490  0.00  0.00     0.000 HD
BRANCH 42 49
ATOM     49   O  IDS C   3      86.111  37.052  21.7870  0.00  0.00     0.000 O
ATOM     50   S  IDS C   3      86.717  37.415  23.2250  0.00  0.00     0.000 S
ATOM     51   O  IDS C   3      86.453  36.228  24.0080  0.00  0.00     0.000 OA
ATOM     52   O  IDS C   3      86.042  38.591  23.7500  0.00  0.00     0.000 OA
ATOM     53   O  IDS C   3      88.130  37.649  23.0130  0.00  0.00     0.000 OA
ENDBRANCH 42 49
BRANCH 45 54
ATOM     54   C  IDS C   3      84.681  35.285  17.6460  0.00  0.00     0.000 C
ATOM     55   O  IDS C   3      85.349  35.982  16.9270  0.00  0.00     0.000 OA
ATOM     56   O  IDS C   3      84.345  34.173  17.2860  0.00  0.00     0.000 OA
ENDBRANCH 45 54
BRANCH 41 57
ATOM     57  O4  SGN C   4      82.927  38.012  20.4530  0.00  0.00     0.000 O
BRANCH 57 61
ATOM     58  C1  SGN C   4      80.026  40.272  18.4530  0.00  0.00     0.000 C
ATOM     59  C2  SGN C   4      80.780  39.223  17.6200  0.00  0.00     0.000 C
ATOM     60  C3  SGN C   4      81.493  38.206  18.5220  0.00  0.00     0.000 C
ATOM     61  C4  SGN C   4      82.380  38.942  19.5130  0.00  0.00     0.000 C
ATOM     62  C5  SGN C   4      81.572  39.986  20.2830  0.00  0.00     0.000 C
ATOM     63  O5  SGN C   4      80.913  40.888  19.3740  0.00  0.00     0.000 O
BRANCH 59 66
ATOM     64   N  SGN C   4      79.774  38.723  16.6770  0.00  0.00     0.000 N
ATOM     66  HD  SGN C   4      80.472  38.802  17.1830  0.00  0.00     0.000 HD
ATOM     66   O  SGN C   4      78.948  38.165  14.4540  0.00  0.00     0.000 OA
ATOM     67   O  SGN C   4      80.269  40.210  14.7950  0.00  0.00     0.000 OA
ATOM     68   S  SGN C   4      80.102  38.683  15.1070  0.00  0.00     0.000 S
ATOM     69   O  SGN C   4      81.352  38.036  14.9280  0.00  0.00     0.000 OA
ENDBRANCH 59 66
BRANCH 62 70
ATOM     70   C  SGN C   4      82.455  40.821  21.1760  0.00  0.00     0.000 C
ATOM     71   S  SGN C   4      84.429  42.455  21.1700  0.00  0.00     0.000 S
ATOM     72   O  SGN C   4      83.708  43.308  22.0950  0.00  0.00     0.000 OA
ATOM     73   O  SGN C   4      85.245  41.455  21.8290  0.00  0.00     0.000 OA
ATOM     74   O  SGN C   4      85.126  43.185  20.1350  0.00  0.00     0.000 OA
ATOM     75   O  SGN C   4      83.300  41.664  20.3840  0.00  0.00     0.000 O
ENDBRANCH 62 70
ENDBRANCH 57 61
ENDBRANCH 41 57
ENDBRANCH 40 44
ENDBRANCH 20 40
ENDBRANCH 19 23
ENDBRANCH 1 19
TORSDOF 14
ENDMDL
MODEL 86
REMARK VINA RESULT:      -0.3    103.397    108.342
ROOT
ATOM      1  C1  IDS C   1      13.076 108.489  70.7490  0.00  0.00     0.000 C
ATOM      2  C2  IDS C   1      13.135 109.691  71.6740  0.00  0.00     0.000 C
ATOM      3  C3  IDS C   1      14.037 109.411  72.8690  0.00  0.00     0.000 C
ATOM      4  C4  IDS C   1      15.400 108.882  72.4200  0.00  0.00     0.000 C
ATOM      5  C5  IDS C   1      15.219 107.728  71.4140  0.00  0.00     0.000 C
ATOM      6  O5  IDS C   1      14.393 108.138  70.3290  0.00  0.00     0.000 O
ATOM      7   O  IDS C   1      13.399 108.473  73.7380  0.00  0.00     0.000 O
ATOM      9  HD  IDS C   1      14.232 108.316  73.9180  0.00  0.00     0.000 HD
ATOM      9   O  IDS C   1      16.131 109.949  71.7950  0.00  0.00     0.000 O
ATOM     11  HD  IDS C   1      16.963 109.792  71.9750  0.00  0.00     0.000 HD
ENDROOT
BRANCH 2 11
ATOM     11   O  IDS C   1      13.690 110.861  70.9570  0.00  0.00     0.000 O
ATOM     12   S  IDS C   1      12.932 112.268  70.9860  0.00  0.00     0.000 S
ATOM     13   O  IDS C   1      14.031 113.208  70.9740  0.00  0.00     0.000 OA
ATOM     14   O  IDS C   1      12.129 112.354  72.1810  0.00  0.00     0.000 OA
ATOM     15   O  IDS C   1      12.150 112.284  69.7740  0.00  0.00     0.000 OA
ENDBRANCH 2 11
BRANCH 5 16
ATOM     16   C  IDS C   1      16.529 107.227  70.8340  0.00  0.00     0.000 C
ATOM     17   O  IDS C   1      17.035 107.839  69.9170  0.00  0.00     0.000 OA
ATOM     18   O  IDS C   1      17.052 106.235  71.2610  0.00  0.00     0.000 OA
ENDBRANCH 5 16
BRANCH 1 19
ATOM     19  O4  SGN C   2      12.271 107.469  71.0620  0.00  0.00     0.000 O
BRANCH 19 23
ATOM     20  C1  SGN C   2       9.424 104.782  69.6120  0.00  0.00     0.000 C
ATOM     21  C2  SGN C   2      10.878 104.531  69.1940  0.00  0.00     0.000 C
ATOM     22  C3  SGN C   2      11.820 105.293  70.1220  0.00  0.00     0.000 C
ATOM     23  C4  SGN C   2      11.469 106.777  70.1030  0.00  0.00     0.000 C
ATOM     24  C5  SGN C   2       9.988 106.964  70.4420  0.00  0.00     0.000 C
ATOM     25  O5  SGN C   2       9.180 106.177  69.5480  0.00  0.00     0.000 O
ATOM     26   O  SGN C   2      13.175 105.084  69.7380  0.00  0.00     0.000 O
ATOM     28  HD  SGN C   2      13.969 104.851  69.4830  0.00  0.00     0.000 HD
BRANCH 21 30
ATOM     28   N  SGN C   2      10.501 103.124  69.0050  0.00  0.00     0.000 N
ATOM     30  HD  SGN C   2      11.038 102.516  69.3070  0.00  0.00     0.000 HD
ATOM     30   S  SGN C   2      11.034 102.284  67.7520  0.00  0.00     0.000 S
ATOM     31   O  SGN C   2      12.451 102.423  67.7820  0.00  0.00     0.000 OA
ATOM     32   O  SGN C   2      10.449 100.995  67.7940  0.00  0.00     0.000 OA
ATOM     33   O  SGN C   2      10.427 103.023  66.5120  0.00  0.00     0.000 OA
ENDBRANCH 21 30
BRANCH 24 34
ATOM     34   C  SGN C   2       9.510 108.391  70.3040  0.00  0.00     0.000 C
ATOM     35   O  SGN C   2       9.352 108.959  71.6160  0.00  0.00     0.000 O
ATOM     36   S  SGN C   2       8.428 110.256  71.7380  0.00  0.00     0.000 S
ATOM     37   O  SGN C   2       7.170 109.871  71.1280  0.00  0.00     0.000 OA
ATOM     38   O  SGN C   2       8.321 110.526  73.1510  0.00  0.00     0.000 OA
ATOM     39   O  SGN C   2       9.149 111.268  71.0050  0.00  0.00     0.000 OA
ENDBRANCH 24 34
BRANCH 20 40
ATOM     40  O4  IDS C   3       9.038 104.324  70.8000  0.00  0.00     0.000 O
BRANCH 40 44
ATOM     41  C1  IDS C   3       8.010 102.646  73.7250  0.00  0.00     0.000 C
ATOM     42  C2  IDS C   3       8.657 101.899  72.5620  0.00  0.00     0.000 C
ATOM     43  C3  IDS C   3       7.937 102.224  71.2560  0.00  0.00     0.000 C
ATOM     44  C4  IDS C   3       7.768 103.723  71.0640  0.00  0.00     0.000 C
ATOM     45  C5  IDS C   3       7.150 104.348  72.3330  0.00  0.00     0.000 C
ATOM     46  O5  IDS C   3       7.973 104.046  73.4620  0.00  0.00     0.000 O
ATOM     47   O  IDS C   3       6.663 101.586  71.2460  0.00  0.00     0.000 O
ATOM     49  HD  IDS C   3       7.526 101.576  71.1810  0.00  0.00     0.000 HD
BRANCH 42 49
ATOM     49   O  IDS C   3      10.079 102.294  72.4310  0.00  0.00     0.000 O
ATOM     50   S  IDS C   3      11.210 101.165  72.3270  0.00  0.00     0.000 S
ATOM     51   O  IDS C   3      11.015 100.618  71.0030  0.00  0.00     0.000 OA
ATOM     52   O  IDS C   3      11.005 100.178  73.3750  0.00  0.00     0.000 OA
ATOM     53   O  IDS C   3      12.475 101.854  72.4710  0.00  0.00     0.000 OA
ENDBRANCH 42 49
BRANCH 45 54
ATOM     54   C  IDS C   3       6.982 105.856  72.2410  0.00  0.00     0.000 C
ATOM     55   O  IDS C   3       6.367 106.333  71.3220  0.00  0.00     0.000 OA
ATOM     56   O  IDS C   3       7.483 106.575  73.0840  0.00  0.00     0.000 OA
ENDBRANCH 45 54
BRANCH 41 57
ATOM     57  O4  SGN C   4       6.901 101.972  74.0550  0.00  0.00     0.000 O
BRANCH 57 61
ATOM     58  C1  SGN C   4       3.986 102.036  77.0590  0.00  0.00     0.000 C
ATOM     59  C2  SGN C   4       3.991 103.217  76.0750  0.00  0.00     0.000 C
ATOM     60  C3  SGN C   4       4.801 102.885  74.8140  0.00  0.00     0.000 C
ATOM     61  C4  SGN C   4       6.194 102.426  75.2130  0.00  0.00     0.000 C
ATOM     62  C5  SGN C   4       6.113 101.273  76.2120  0.00  0.00     0.000 C
ATOM     63  O5  SGN C   4       5.319 101.646  77.3540  0.00  0.00     0.000 O
BRANCH 59 66
ATOM     64   N  SGN C   4       2.571 103.552  75.9280  0.00  0.00     0.000 N
ATOM     66  HD  SGN C   4       3.421 103.461  75.7940  0.00  0.00     0.000 HD
ATOM     66   O  SGN C   4       0.679 105.087  75.9030  0.00  0.00     0.000 OA
ATOM     67   O  SGN C   4       2.448 105.349  77.5890  0.00  0.00     0.000 OA
ATOM     68   S  SGN C   4       2.090 105.075  76.0870  0.00  0.00     0.000 S
ATOM     69   O  SGN C   4       2.907 105.890  75.2620  0.00  0.00     0.000 OA
ENDBRANCH 59 66
BRANCH 62 70
ATOM     70   C  SGN C   4       7.478 100.887  76.7250  0.00  0.00     0.000 C
ATOM     71   S  SGN C   4       9.675 101.838  77.6400  0.00  0.00     0.000 S
ATOM     72   O  SGN C   4       9.659 100.833  78.6850  0.00  0.00     0.000 OA
ATOM     73   O  SGN C   4      10.352 101.403  76.4350  0.00  0.00     0.000 OA
ATOM     74   O  SGN C   4      10.089 103.144  78.1010  0.00  0.00     0.000 OA
ATOM     75   O  SGN C   4       8.150 102.040  77.2470  0.00  0.00     0.000 O
ENDBRANCH 62 70
ENDBRANCH 57 61
ENDBRANCH 41 57
ENDBRANCH 40 44
ENDBRANCH 20 40
ENDBRANCH 19 23
ENDBRANCH 1 19
TORSDOF 14
ENDMDL
MODEL 87
REMARK VINA RESULT:      -0.3     67.599     72.285
ROOT
ATOM      1  C1  IDS C   1      71.617  40.706  46.9060  0.00  0.00     0.000 C
ATOM      2  C2  IDS C   1      70.878  41.964  47.3280  0.00  0.00     0.000 C
ATOM      3  C3  IDS C   1      71.703  42.767  48.3260  0.00  0.00     0.000 C
ATOM      4  C4  IDS C   1      73.121  43.002  47.8070  0.00  0.00     0.000 C
ATOM      5  C5  IDS C   1      73.739  41.676  47.3200  0.00  0.00     0.000 C
ATOM      6  O5  IDS C   1      72.890  41.053  46.3620  0.00  0.00     0.000 O
ATOM      7   O  IDS C   1      71.737  42.079  49.5780  0.00  0.00     0.000 O
ATOM      9  HD  IDS C   1      72.479  42.523  49.6190  0.00  0.00     0.000 HD
ATOM      9   O  IDS C   1      73.070  43.933  46.7150  0.00  0.00     0.000 O
ATOM     11  HD  IDS C   1      73.812  44.377  46.7560  0.00  0.00     0.000 HD
ENDROOT
BRANCH 2 11
ATOM     11   O  IDS C   1      70.629  42.828  46.1530  0.00  0.00     0.000 O
ATOM     12   S  IDS C   1      69.143  43.053  45.6090  0.00  0.00     0.000 S
ATOM     13   O  IDS C   1      69.192  44.422  45.1430  0.00  0.00     0.000 OA
ATOM     14   O  IDS C   1      68.204  42.857  46.6870  0.00  0.00     0.000 OA
ATOM     15   O  IDS C   1      68.996  42.090  44.5460  0.00  0.00     0.000 OA
ENDBRANCH 2 11
BRANCH 5 16
ATOM     16   C  IDS C   1      75.106  41.849  46.6830  0.00  0.00     0.000 C
ATOM     17   O  IDS C   1      75.675  40.871  46.2470  0.00  0.00     0.000 OA
ATOM     18   O  IDS C   1      75.625  42.929  46.6250  0.00  0.00     0.000 OA
ENDBRANCH 5 16
BRANCH 1 19
ATOM     19  O4  SGN C   2      71.597  39.641  47.7130  0.00  0.00     0.000 O
BRANCH 19 23
ATOM     20  C1  SGN C   2      71.691  35.471  47.8920  0.00  0.00     0.000 C
ATOM     21  C2  SGN C   2      72.995  36.169  47.4860  0.00  0.00     0.000 C
ATOM     22  C3  SGN C   2      72.937  37.642  47.8830  0.00  0.00     0.000 C
ATOM     23  C4  SGN C   2      71.717  38.297  47.2440  0.00  0.00     0.000 C
ATOM     24  C5  SGN C   2      70.454  37.511  47.6090  0.00  0.00     0.000 C
ATOM     25  O5  SGN C   2      70.616  36.129  47.2410  0.00  0.00     0.000 O
ATOM     26   O  SGN C   2      74.134  38.308  47.5000  0.00  0.00     0.000 O
ATOM     28  HD  SGN C   2      74.916  38.621  47.2970  0.00  0.00     0.000 HD
BRANCH 21 30
ATOM     28   N  SGN C   2      73.729  35.006  48.0030  0.00  0.00     0.000 N
ATOM     30  HD  SGN C   2      74.458  35.152  48.4490  0.00  0.00     0.000 HD
ATOM     30   S  SGN C   2      74.938  34.356  47.1810  0.00  0.00     0.000 S
ATOM     31   O  SGN C   2      75.830  35.432  46.9090  0.00  0.00     0.000 OA
ATOM     32   O  SGN C   2      75.398  33.216  47.8840  0.00  0.00     0.000 OA
ATOM     33   O  SGN C   2      74.266  33.841  45.8620  0.00  0.00     0.000 OA
ENDBRANCH 21 30
BRANCH 24 34
ATOM     34   C  SGN C   2      69.211  37.998  46.9020  0.00  0.00     0.000 C
ATOM     35   O  SGN C   2      68.418  38.765  47.8260  0.00  0.00     0.000 O
ATOM     36   S  SGN C   2      66.878  38.972  47.4610  0.00  0.00     0.000 S
ATOM     37   O  SGN C   2      66.367  37.633  47.2450  0.00  0.00     0.000 OA
ATOM     38   O  SGN C   2      66.293  39.633  48.6030  0.00  0.00     0.000 OA
ATOM     39   O  SGN C   2      66.909  39.786  46.2710  0.00  0.00     0.000 OA
ENDBRANCH 24 34
BRANCH 20 40
ATOM     40  O4  IDS C   3      71.422  35.375  49.1920  0.00  0.00     0.000 O
BRANCH 40 44
ATOM     41  C1  IDS C   3      70.981  34.789  52.6400  0.00  0.00     0.000 C
ATOM     42  C2  IDS C   3      72.243  34.339  51.9090  0.00  0.00     0.000 C
ATOM     43  C3  IDS C   3      71.878  33.523  50.6710  0.00  0.00     0.000 C
ATOM     44  C4  IDS C   3      70.838  34.230  49.8170  0.00  0.00     0.000 C
ATOM     45  C5  IDS C   3      69.647  34.669  50.6950  0.00  0.00     0.000 C
ATOM     46  O5  IDS C   3      70.118  35.501  51.7570  0.00  0.00     0.000 O
ATOM     47   O  IDS C   3      71.389  32.246  51.0740  0.00  0.00     0.000 O
ATOM     49  HD  IDS C   3      72.027  32.818  50.9450  0.00  0.00     0.000 HD
BRANCH 42 49
ATOM     49   O  IDS C   3      73.032  35.518  51.4830  0.00  0.00     0.000 O
ATOM     50   S  IDS C   3      74.606  35.568  51.7770  0.00  0.00     0.000 S
ATOM     51   O  IDS C   3      75.149  34.598  50.8510  0.00  0.00     0.000 OA
ATOM     52   O  IDS C   3      74.850  35.211  53.1650  0.00  0.00     0.000 OA
ATOM     53   O  IDS C   3      75.024  36.922  51.4830  0.00  0.00     0.000 OA
ENDBRANCH 42 49
BRANCH 45 54
ATOM     54   C  IDS C   3      68.574  35.421  49.9240  0.00  0.00     0.000 C
ATOM     55   O  IDS C   3      68.251  36.526  50.2760  0.00  0.00     0.000 OA
ATOM     56   O  IDS C   3      68.036  34.900  48.9670  0.00  0.00     0.000 OA
ENDBRANCH 45 54
BRANCH 41 57
ATOM     57  O4  SGN C   4      70.540  33.738  53.3430  0.00  0.00     0.000 O
BRANCH 57 61
ATOM     58  C1  SGN C   4      67.741  32.964  56.3580  0.00  0.00     0.000 C
ATOM     59  C2  SGN C   4      67.222  33.681  55.1010  0.00  0.00     0.000 C
ATOM     60  C3  SGN C   4      68.210  33.538  53.9350  0.00  0.00     0.000 C
ATOM     61  C4  SGN C   4      69.586  34.010  54.3740  0.00  0.00     0.000 C
ATOM     62  C5  SGN C   4      70.024  33.278  55.6420  0.00  0.00     0.000 C
ATOM     63  O5  SGN C   4      69.041  33.435  56.6830  0.00  0.00     0.000 O
BRANCH 59 66
ATOM     64   N  SGN C   4      65.859  33.159  54.9660  0.00  0.00     0.000 N
ATOM     66  HD  SGN C   4      66.642  33.490  54.8030  0.00  0.00     0.000 HD
ATOM     66   O  SGN C   4      63.460  33.379  54.6010  0.00  0.00     0.000 OA
ATOM     67   O  SGN C   4      64.650  35.036  55.9740  0.00  0.00     0.000 OA
ATOM     68   S  SGN C   4      64.645  34.165  54.6700  0.00  0.00     0.000 S
ATOM     69   O  SGN C   4      65.002  34.984  53.5670  0.00  0.00     0.000 OA
ENDBRANCH 59 66
BRANCH 62 70
ATOM     70   C  SGN C   4      71.326  33.822  56.1740  0.00  0.00     0.000 C
ATOM     71   S  SGN C   4      72.388  35.846  57.3350  0.00  0.00     0.000 S
ATOM     72   O  SGN C   4      73.092  34.946  58.2280  0.00  0.00     0.000 OA
ATOM     73   O  SGN C   4      73.123  36.141  56.1220  0.00  0.00     0.000 OA
ATOM     74   O  SGN C   4      71.858  37.016  57.9960  0.00  0.00     0.000 OA
ATOM     75   O  SGN C   4      71.094  35.042  56.8880  0.00  0.00     0.000 O
ENDBRANCH 62 70
ENDBRANCH 57 61
ENDBRANCH 41 57
ENDBRANCH 40 44
ENDBRANCH 20 40
ENDBRANCH 19 23
ENDBRANCH 1 19
TORSDOF 14
ENDMDL
MODEL 88
REMARK VINA RESULT:      -0.3     84.655     92.081
ROOT
ATOM      1  C1  IDS C   1      52.345  65.076  90.2440  0.00  0.00     0.000 C
ATOM      2  C2  IDS C   1      53.744  64.554  90.5230  0.00  0.00     0.000 C
ATOM      3  C3  IDS C   1      54.578  64.538  89.2480  0.00  0.00     0.000 C
ATOM      4  C4  IDS C   1      54.530  65.891  88.5390  0.00  0.00     0.000 C
ATOM      5  C5  IDS C   1      53.071  66.366  88.3940  0.00  0.00     0.000 C
ATOM      6  O5  IDS C   1      52.421  66.376  89.6610  0.00  0.00     0.000 O
ATOM      7   O  IDS C   1      54.106  63.503  88.3830  0.00  0.00     0.000 O
ATOM      9  HD  IDS C   1      54.445  64.052  87.8050  0.00  0.00     0.000 HD
ATOM      9   O  IDS C   1      55.268  66.850  89.3130  0.00  0.00     0.000 O
ATOM     11  HD  IDS C   1      55.607  67.399  88.7350  0.00  0.00     0.000 HD
ENDROOT
BRANCH 2 11
ATOM     11   O  IDS C   1      54.430  65.430  91.4980  0.00  0.00     0.000 O
ATOM     12   S  IDS C   1      54.762  64.905  92.9710  0.00  0.00     0.000 S
ATOM     13   O  IDS C   1      56.017  65.564  93.2560  0.00  0.00     0.000 OA
ATOM     14   O  IDS C   1      54.872  63.466  92.9520  0.00  0.00     0.000 OA
ATOM     15   O  IDS C   1      53.667  65.379  93.7800  0.00  0.00     0.000 OA
ENDBRANCH 2 11
BRANCH 5 16
ATOM     16   C  IDS C   1      52.949  67.758  87.8010  0.00  0.00     0.000 C
ATOM     17   O  IDS C   1      51.845  68.241  87.6650  0.00  0.00     0.000 OA
ATOM     18   O  IDS C   1      53.924  68.368  87.4570  0.00  0.00     0.000 OA
ENDBRANCH 5 16
BRANCH 1 19
ATOM     19  O4  SGN C   2      51.438  64.250  89.7130  0.00  0.00     0.000 O
BRANCH 19 23
ATOM     20  C1  SGN C   2      47.380  63.301  89.4880  0.00  0.00     0.000 C
ATOM     21  C2  SGN C   2      47.823  64.584  88.7760  0.00  0.00     0.000 C
ATOM     22  C3  SGN C   2      49.336  64.565  88.5730  0.00  0.00     0.000 C
ATOM     23  C4  SGN C   2      50.032  64.389  89.9180  0.00  0.00     0.000 C
ATOM     24  C5  SGN C   2      49.490  63.143  90.6240  0.00  0.00     0.000 C
ATOM     25  O5  SGN C   2      48.057  63.227  90.7320  0.00  0.00     0.000 O
ATOM     26   O  SGN C   2      49.767  65.758  87.9270  0.00  0.00     0.000 O
ATOM     28  HD  SGN C   2      49.936  66.476  87.4740  0.00  0.00     0.000 HD
BRANCH 21 30
ATOM     28   N  SGN C   2      46.673  64.431  87.8750  0.00  0.00     0.000 N
ATOM     30  HD  SGN C   2      46.792  64.599  87.0340  0.00  0.00     0.000 HD
ATOM     30   S  SGN C   2      45.745  65.678  87.4950  0.00  0.00     0.000 S
ATOM     31   O  SGN C   2      46.637  66.674  87.0040  0.00  0.00     0.000 OA
ATOM     32   O  SGN C   2      44.684  65.215  86.6800  0.00  0.00     0.000 OA
ATOM     33   O  SGN C   2      45.117  66.115  88.8620  0.00  0.00     0.000 OA
ENDBRANCH 21 30
BRANCH 24 34
ATOM     34   C  SGN C   2      50.013  62.967  92.0300  0.00  0.00     0.000 C
ATOM     35   O  SGN C   2      51.034  61.953  92.0260  0.00  0.00     0.000 O
ATOM     36   S  SGN C   2      51.386  61.273  93.4260  0.00  0.00     0.000 S
ATOM     37   O  SGN C   2      50.115  60.799  93.9370  0.00  0.00     0.000 OA
ATOM     38   O  SGN C   2      52.313  60.210  93.1200  0.00  0.00     0.000 OA
ATOM     39   O  SGN C   2      51.965  62.345  94.1990  0.00  0.00     0.000 OA
ENDBRANCH 24 34
BRANCH 20 40
ATOM     40  O4  IDS C   3      47.535  62.151  88.8360  0.00  0.00     0.000 O
BRANCH 40 44
ATOM     41  C1  IDS C   3      47.602  59.195  86.9170  0.00  0.00     0.000 C
ATOM     42  C2  IDS C   3      46.890  60.451  86.4230  0.00  0.00     0.000 C
ATOM     43  C3  IDS C   3      45.922  60.965  87.4860  0.00  0.00     0.000 C
ATOM     44  C4  IDS C   3      46.590  61.078  88.8480  0.00  0.00     0.000 C
ATOM     45  C5  IDS C   3      47.309  59.756  89.1910  0.00  0.00     0.000 C
ATOM     46  O5  IDS C   3      48.250  59.444  88.1620  0.00  0.00     0.000 O
ATOM     47   O  IDS C   3      44.799  60.091  87.5670  0.00  0.00     0.000 O
ATOM     49  HD  IDS C   3      45.262  60.713  87.1800  0.00  0.00     0.000 HD
BRANCH 42 49
ATOM     49   O  IDS C   3      47.878  61.514  86.1270  0.00  0.00     0.000 O
ATOM     50   S  IDS C   3      47.770  62.338  84.7570  0.00  0.00     0.000 S
ATOM     51   O  IDS C   3      46.608  63.174  84.9610  0.00  0.00     0.000 OA
ATOM     52   O  IDS C   3      47.605  61.413  83.6490  0.00  0.00     0.000 OA
ATOM     53   O  IDS C   3      48.998  63.097  84.6530  0.00  0.00     0.000 OA
ENDBRANCH 42 49
BRANCH 45 54
ATOM     54   C  IDS C   3      48.039  59.796  90.5240  0.00  0.00     0.000 C
ATOM     55   O  IDS C   3      49.219  59.559  90.5660  0.00  0.00     0.000 OA
ATOM     56   O  IDS C   3      47.428  60.050  91.5440  0.00  0.00     0.000 OA
ENDBRANCH 45 54
BRANCH 41 57
ATOM     57  O4  SGN C   4      46.746  58.176  86.7700  0.00  0.00     0.000 O
BRANCH 57 61
ATOM     58  C1  SGN C   4      46.893  53.996  86.5920  0.00  0.00     0.000 C
ATOM     59  C2  SGN C   4      47.583  54.661  87.7940  0.00  0.00     0.000 C
ATOM     60  C3  SGN C   4      47.117  56.113  87.9660  0.00  0.00     0.000 C
ATOM     61  C4  SGN C   4      47.317  56.868  86.6630  0.00  0.00     0.000 C
ATOM     62  C5  SGN C   4      46.632  56.137  85.5090  0.00  0.00     0.000 C
ATOM     63  O5  SGN C   4      47.098  54.777  85.4230  0.00  0.00     0.000 O
BRANCH 59 66
ATOM     64   N  SGN C   4      47.351  53.732  88.9050  0.00  0.00     0.000 N
ATOM     66  HD  SGN C   4      47.520  54.439  88.4340  0.00  0.00     0.000 HD
ATOM     66   O  SGN C   4      48.062  52.336  90.7710  0.00  0.00     0.000 OA
ATOM     67   O  SGN C   4      49.412  52.422  88.7180  0.00  0.00     0.000 OA
ATOM     68   S  SGN C   4      48.590  53.220  89.7880  0.00  0.00     0.000 S
ATOM     69   O  SGN C   4      49.343  54.350  90.2000  0.00  0.00     0.000 OA
ENDBRANCH 59 66
BRANCH 62 70
ATOM     70   C  SGN C   4      46.927  56.792  84.1840  0.00  0.00     0.000 C
ATOM     71   S  SGN C   4      48.708  57.023  82.3540  0.00  0.00     0.000 S
ATOM     72   O  SGN C   4      47.681  56.829  81.3500  0.00  0.00     0.000 OA
ATOM     73   O  SGN C   4      48.893  58.411  82.7260  0.00  0.00     0.000 OA
ATOM     74   O  SGN C   4      49.941  56.329  82.0610  0.00  0.00     0.000 OA
ATOM     75   O  SGN C   4      48.155  56.285  83.6470  0.00  0.00     0.000 O
ENDBRANCH 62 70
ENDBRANCH 57 61
ENDBRANCH 41 57
ENDBRANCH 40 44
ENDBRANCH 20 40
ENDBRANCH 19 23
ENDBRANCH 1 19
TORSDOF 14
ENDMDL
MODEL 89
REMARK VINA RESULT:      -0.3     96.986    101.431
ROOT
ATOM      1  C1  IDS C   1      20.918 110.328  47.0970  0.00  0.00     0.000 C
ATOM      2  C2  IDS C   1      21.705 111.436  47.7750  0.00  0.00     0.000 C
ATOM      3  C3  IDS C   1      22.794 111.969  46.8530  0.00  0.00     0.000 C
ATOM      4  C4  IDS C   1      22.226 112.335  45.4820  0.00  0.00     0.000 C
ATOM      5  C5  IDS C   1      21.370 111.177  44.9320  0.00  0.00     0.000 C
ATOM      6  O5  IDS C   1      20.367 110.808  45.8720  0.00  0.00     0.000 O
ATOM      7   O  IDS C   1      23.826 110.990  46.7210  0.00  0.00     0.000 O
ATOM      9  HD  IDS C   1      23.911 111.414  45.9700  0.00  0.00     0.000 HD
ATOM      9   O  IDS C   1      21.409 113.509  45.6140  0.00  0.00     0.000 O
ATOM     11  HD  IDS C   1      21.493 113.933  44.8630  0.00  0.00     0.000 HD
ENDROOT
BRANCH 2 11
ATOM     11   O  IDS C   1      20.809 112.565  48.1130  0.00  0.00     0.000 O
ATOM     12   S  IDS C   1      20.636 113.042  49.6280  0.00  0.00     0.000 S
ATOM     13   O  IDS C   1      20.464 114.470  49.4830  0.00  0.00     0.000 OA
ATOM     14   O  IDS C   1      21.817 112.689  50.3780  0.00  0.00     0.000 OA
ATOM     15   O  IDS C   1      19.449 112.365  50.0880  0.00  0.00     0.000 OA
ENDBRANCH 2 11
BRANCH 5 16
ATOM     16   C  IDS C   1      20.677 111.511  43.6230  0.00  0.00     0.000 C
ATOM     17   O  IDS C   1      19.652 112.159  43.6540  0.00  0.00     0.000 OA
ATOM     18   O  IDS C   1      21.123 111.131  42.5760  0.00  0.00     0.000 OA
ENDBRANCH 5 16
BRANCH 1 19
ATOM     19  O4  SGN C   2      21.432 109.095  47.0630  0.00  0.00     0.000 O
BRANCH 19 23
ATOM     20  C1  SGN C   2      20.579 105.021  47.3830  0.00  0.00     0.000 C
ATOM     21  C2  SGN C   2      20.156 105.709  46.0800  0.00  0.00     0.000 C
ATOM     22  C3  SGN C   2      20.901 107.033  45.9300  0.00  0.00     0.000 C
ATOM     23  C4  SGN C   2      20.639 107.910  47.1490  0.00  0.00     0.000 C
ATOM     24  C5  SGN C   2      20.995 107.144  48.4260  0.00  0.00     0.000 C
ATOM     25  O5  SGN C   2      20.283 105.895  48.4610  0.00  0.00     0.000 O
ATOM     26   O  SGN C   2      20.509 107.693  44.7320  0.00  0.00     0.000 O
ATOM     28  HD  SGN C   2      20.268 107.993  43.9560  0.00  0.00     0.000 HD
BRANCH 21 30
ATOM     28   N  SGN C   2      20.187 104.360  45.4990  0.00  0.00     0.000 N
ATOM     30  HD  SGN C   2      20.613 104.250  44.7530  0.00  0.00     0.000 HD
ATOM     30   S  SGN C   2      19.121 103.907  44.3960  0.00  0.00     0.000 S
ATOM     31   O  SGN C   2      19.195 104.895  43.3730  0.00  0.00     0.000 OA
ATOM     32   O  SGN C   2      19.350 102.546  44.0820  0.00  0.00     0.000 OA
ATOM     33   O  SGN C   2      17.746 103.980  45.1440  0.00  0.00     0.000 OA
ENDBRANCH 21 30
BRANCH 24 34
ATOM     34   C  SGN C   2      20.630 107.878  49.6950  0.00  0.00     0.000 C
ATOM     35   O  SGN C   2      21.837 108.293  50.3590  0.00  0.00     0.000 O
ATOM     36   S  SGN C   2      21.725 108.653  51.9100  0.00  0.00     0.000 S
ATOM     37   O  SGN C   2      21.113 107.487  52.5160  0.00  0.00     0.000 OA
ATOM     38   O  SGN C   2      23.078 108.887  52.3540  0.00  0.00     0.000 OA
ATOM     39   O  SGN C   2      20.893 109.831  51.9350  0.00  0.00     0.000 OA
ENDBRANCH 24 34
BRANCH 20 40
ATOM     40  O4  IDS C   3      21.842 104.615  47.4830  0.00  0.00     0.000 O
BRANCH 40 44
ATOM     41  C1  IDS C   3      25.053 103.161  47.4410  0.00  0.00     0.000 C
ATOM     42  C2  IDS C   3      24.018 102.841  46.3660  0.00  0.00     0.000 C
ATOM     43  C3  IDS C   3      22.702 102.410  47.0080  0.00  0.00     0.000 C
ATOM     44  C4  IDS C   3      22.254 103.386  48.0850  0.00  0.00     0.000 C
ATOM     45  C5  IDS C   3      23.414 103.651  49.0680  0.00  0.00     0.000 C
ATOM     46  O5  IDS C   3      24.548 104.138  48.3470  0.00  0.00     0.000 O
ATOM     47   O  IDS C   3      22.851 101.106  47.5650  0.00  0.00     0.000 O
ATOM     49  HD  IDS C   3      22.757 101.649  46.8970  0.00  0.00     0.000 HD
BRANCH 42 49
ATOM     49   O  IDS C   3      23.768 104.037  45.5280  0.00  0.00     0.000 O
ATOM     50   S  IDS C   3      23.779 103.903  43.9320  0.00  0.00     0.000 S
ATOM     51   O  IDS C   3      22.558 103.181  43.6490  0.00  0.00     0.000 OA
ATOM     52   O  IDS C   3      24.966 103.176  43.5160  0.00  0.00     0.000 OA
ATOM     53   O  IDS C   3      23.764 105.257  43.4200  0.00  0.00     0.000 OA
ENDBRANCH 42 49
BRANCH 45 54
ATOM     54   C  IDS C   3      23.063 104.651  50.1590  0.00  0.00     0.000 C
ATOM     55   O  IDS C   3      23.768 105.610  50.3380  0.00  0.00     0.000 OA
ATOM     56   O  IDS C   3      22.083 104.469  50.8550  0.00  0.00     0.000 OA
ENDBRANCH 45 54
BRANCH 41 57
ATOM     57  O4  SGN C   4      25.537 101.992  47.8790  0.00  0.00     0.000 O
BRANCH 57 61
ATOM     58  C1  SGN C   4      28.705 100.609  50.2400  0.00  0.00     0.000 C
ATOM     59  C2  SGN C   4      27.637 101.459  50.9460  0.00  0.00     0.000 C
ATOM     60  C3  SGN C   4      26.356 101.551  50.1050  0.00  0.00     0.000 C
ATOM     61  C4  SGN C   4      26.699 102.049  48.7110  0.00  0.00     0.000 C
ATOM     62  C5  SGN C   4      27.786 101.178  48.0830  0.00  0.00     0.000 C
ATOM     63  O5  SGN C   4      28.944 101.117  48.9360  0.00  0.00     0.000 O
BRANCH 59 66
ATOM     64   N  SGN C   4      27.529 100.875  52.2870  0.00  0.00     0.000 N
ATOM     66  HD  SGN C   4      27.369 101.305  51.5530  0.00  0.00     0.000 HD
ATOM     66   O  SGN C   4      27.533 100.974  54.7210  0.00  0.00     0.000 OA
ATOM     67   O  SGN C   4      29.156 102.300  53.4370  0.00  0.00     0.000 OA
ATOM     68   S  SGN C   4      27.672 101.814  53.5800  0.00  0.00     0.000 S
ATOM     69   O  SGN C   4      26.805 102.926  53.4240  0.00  0.00     0.000 OA
ENDBRANCH 59 66
BRANCH 62 70
ATOM     70   C  SGN C   4      28.240 101.729  46.7550  0.00  0.00     0.000 C
ATOM     71   S  SGN C   4      29.172 103.823  45.6070  0.00  0.00     0.000 S
ATOM     72   O  SGN C   4      30.141 102.996  44.9160  0.00  0.00     0.000 OA
ATOM     73   O  SGN C   4      27.924 103.969  44.8850  0.00  0.00     0.000 OA
ATOM     74   O  SGN C   4      29.716 105.073  46.0870  0.00  0.00     0.000 OA
ATOM     75   O  SGN C   4      28.829 103.023  46.9350  0.00  0.00     0.000 O
ENDBRANCH 62 70
ENDBRANCH 57 61
ENDBRANCH 41 57
ENDBRANCH 40 44
ENDBRANCH 20 40
ENDBRANCH 19 23
ENDBRANCH 1 19
TORSDOF 14
ENDMDL
MODEL 90
REMARK VINA RESULT:      -0.3    105.553    110.743
ROOT
ATOM      1  C1  IDS C   1      29.985 116.573  46.0460  0.00  0.00     0.000 C
ATOM      2  C2  IDS C   1      30.227 118.048  46.3120  0.00  0.00     0.000 C
ATOM      3  C3  IDS C   1      31.383 118.567  45.4650  0.00  0.00     0.000 C
ATOM      4  C4  IDS C   1      31.194 118.205  43.9920  0.00  0.00     0.000 C
ATOM      5  C5  IDS C   1      30.861 116.707  43.8490  0.00  0.00     0.000 C
ATOM      6  O5  IDS C   1      29.739 116.367  44.6560  0.00  0.00     0.000 O
ATOM      7   O  IDS C   1      32.613 118.031  45.9580  0.00  0.00     0.000 O
ATOM      9  HD  IDS C   1      32.818 118.165  45.1270  0.00  0.00     0.000 HD
ATOM      9   O  IDS C   1      30.116 118.987  43.4550  0.00  0.00     0.000 O
ATOM     11  HD  IDS C   1      30.321 119.120  42.6240  0.00  0.00     0.000 HD
ENDROOT
BRANCH 2 11
ATOM     11   O  IDS C   1      29.024 118.835  45.9610  0.00  0.00     0.000 O
ATOM     12   S  IDS C   1      28.160 119.551  47.0980  0.00  0.00     0.000 S
ATOM     13   O  IDS C   1      27.714 120.755  46.4320  0.00  0.00     0.000 OA
ATOM     14   O  IDS C   1      29.000 119.818  48.2410  0.00  0.00     0.000 OA
ATOM     15   O  IDS C   1      27.093 118.624  47.3820  0.00  0.00     0.000 OA
ENDBRANCH 2 11
BRANCH 5 16
ATOM     16   C  IDS C   1      30.546 116.296  42.4220  0.00  0.00     0.000 C
ATOM     17   O  IDS C   1      30.255 115.140  42.1970  0.00  0.00     0.000 OA
ATOM     18   O  IDS C   1      30.597 117.093  41.5270  0.00  0.00     0.000 OA
ENDBRANCH 5 16
BRANCH 1 19
ATOM     19  O4  SGN C   2      30.769 115.669  46.6410  0.00  0.00     0.000 O
BRANCH 19 23
ATOM     20  C1  SGN C   2      30.969 111.807  48.2120  0.00  0.00     0.000 C
ATOM     21  C2  SGN C   2      30.886 111.921  46.6850  0.00  0.00     0.000 C
ATOM     22  C3  SGN C   2      31.256 113.338  46.2540  0.00  0.00     0.000 C
ATOM     23  C4  SGN C   2      30.344 114.341  46.9510  0.00  0.00     0.000 C
ATOM     24  C5  SGN C   2      30.397 114.125  48.4660  0.00  0.00     0.000 C
ATOM     25  O5  SGN C   2      30.079 112.756  48.7760  0.00  0.00     0.000 O
ATOM     26   O  SGN C   2      31.169 113.467  44.8390  0.00  0.00     0.000 O
ATOM     28  HD  SGN C   2      31.159 113.442  43.9740  0.00  0.00     0.000 HD
BRANCH 21 30
ATOM     28   N  SGN C   2      31.154 110.484  46.8310  0.00  0.00     0.000 N
ATOM     30  HD  SGN C   2      31.953 110.201  46.6580  0.00  0.00     0.000 HD
ATOM     30   S  SGN C   2      31.056 109.491  45.5800  0.00  0.00     0.000 S
ATOM     31   O  SGN C   2      31.898 110.059  44.5820  0.00  0.00     0.000 OA
ATOM     32   O  SGN C   2      31.289 108.171  46.0350  0.00  0.00     0.000 OA
ATOM     33   O  SGN C   2      29.551 109.569  45.1500  0.00  0.00     0.000 OA
ENDBRANCH 21 30
BRANCH 24 34
ATOM     34   C  SGN C   2      29.413 114.976  49.2350  0.00  0.00     0.000 C
ATOM     35   O  SGN C   2      30.124 116.048  49.8780  0.00  0.00     0.000 O
ATOM     36   S  SGN C   2      29.394 116.774  51.0980  0.00  0.00     0.000 S
ATOM     37   O  SGN C   2      29.038 115.701  52.0060  0.00  0.00     0.000 OA
ATOM     38   O  SGN C   2      30.366 117.690  51.6440  0.00  0.00     0.000 OA
ATOM     39   O  SGN C   2      28.260 117.425  50.4880  0.00  0.00     0.000 OA
ENDBRANCH 24 34
BRANCH 20 40
ATOM     40  O4  IDS C   3      32.167 111.940  48.7750  0.00  0.00     0.000 O
BRANCH 40 44
ATOM     41  C1  IDS C   3      35.438 111.510  50.0160  0.00  0.00     0.000 C
ATOM     42  C2  IDS C   3      34.776 110.458  49.1310  0.00  0.00     0.000 C
ATOM     43  C3  IDS C   3      33.406 110.081  49.6890  0.00  0.00     0.000 C
ATOM     44  C4  IDS C   3      32.565 111.310  49.9950  0.00  0.00     0.000 C
ATOM     45  C5  IDS C   3      33.378 112.303  50.8530  0.00  0.00     0.000 C
ATOM     46  O5  IDS C   3      34.587 112.643  50.1700  0.00  0.00     0.000 O
ATOM     47   O  IDS C   3      33.575 109.301  50.8710  0.00  0.00     0.000 O
ATOM     49  HD  IDS C   3      33.589 109.405  50.0110  0.00  0.00     0.000 HD
BRANCH 42 49
ATOM     49   O  IDS C   3      34.600 110.985  47.7580  0.00  0.00     0.000 O
ATOM     50   S  IDS C   3      35.301 110.240  46.5260  0.00  0.00     0.000 S
ATOM     51   O  IDS C   3      34.532 109.023  46.3900  0.00  0.00     0.000 OA
ATOM     52   O  IDS C   3      36.696 109.986  46.8450  0.00  0.00     0.000 OA
ATOM     53   O  IDS C   3      35.157 111.127  45.3900  0.00  0.00     0.000 OA
ENDBRANCH 42 49
BRANCH 45 54
ATOM     54   C  IDS C   3      32.621 113.583  51.1720  0.00  0.00     0.000 C
ATOM     55   O  IDS C   3      31.585 113.527  51.7810  0.00  0.00     0.000 OA
ATOM     56   O  IDS C   3      33.056 114.654  50.7970  0.00  0.00     0.000 OA
ENDBRANCH 45 54
BRANCH 41 57
ATOM     57  O4  SGN C   4      35.940 110.869  51.0790  0.00  0.00     0.000 O
BRANCH 57 61
ATOM     58  C1  SGN C   4      38.271 111.750  54.4430  0.00  0.00     0.000 C
ATOM     59  C2  SGN C   4      36.844 112.322  54.4210  0.00  0.00     0.000 C
ATOM     60  C3  SGN C   4      35.977 111.609  53.3750  0.00  0.00     0.000 C
ATOM     61  C4  SGN C   4      36.668 111.661  52.0230  0.00  0.00     0.000 C
ATOM     62  C5  SGN C   4      38.088 111.106  52.1250  0.00  0.00     0.000 C
ATOM     63  O5  SGN C   4      38.833 111.804  53.1400  0.00  0.00     0.000 O
BRANCH 59 66
ATOM     64   N  SGN C   4      36.416 112.270  55.8230  0.00  0.00     0.000 N
ATOM     66  HD  SGN C   4      36.426 112.302  54.9580  0.00  0.00     0.000 HD
ATOM     66   O  SGN C   4      35.500 113.231  57.8660  0.00  0.00     0.000 OA
ATOM     67   O  SGN C   4      37.051 114.543  56.4810  0.00  0.00     0.000 OA
ATOM     68   S  SGN C   4      35.812 113.582  56.5220  0.00  0.00     0.000 S
ATOM     69   O  SGN C   4      34.794 114.106  55.6850  0.00  0.00     0.000 OA
ENDBRANCH 59 66
BRANCH 62 70
ATOM     70   C  SGN C   4      38.841 111.269  50.8280  0.00  0.00     0.000 C
ATOM     71   S  SGN C   4      39.548 112.987  49.0620  0.00  0.00     0.000 S
ATOM     72   O  SGN C   4      40.885 112.428  49.0740  0.00  0.00     0.000 OA
ATOM     73   O  SGN C   4      38.667 112.349  48.1050  0.00  0.00     0.000 OA
ATOM     74   O  SGN C   4      39.527 114.431  49.0020  0.00  0.00     0.000 OA
ATOM     75   O  SGN C   4      38.959 112.658  50.5000  0.00  0.00     0.000 O
ENDBRANCH 62 70
ENDBRANCH 57 61
ENDBRANCH 41 57
ENDBRANCH 40 44
ENDBRANCH 20 40
ENDBRANCH 19 23
ENDBRANCH 1 19
TORSDOF 14
ENDMDL
MODEL 91
REMARK VINA RESULT:      -0.3     93.747     98.100
ROOT
ATOM      1  C1  IDS C   1      31.025  75.408  91.7410  0.00  0.00     0.000 C
ATOM      2  C2  IDS C   1      29.583  75.839  91.9390  0.00  0.00     0.000 C
ATOM      3  C3  IDS C   1      28.703  75.319  90.8090  0.00  0.00     0.000 C
ATOM      4  C4  IDS C   1      28.898  73.817  90.6040  0.00  0.00     0.000 C
ATOM      5  C5  IDS C   1      30.401  73.482  90.5100  0.00  0.00     0.000 C
ATOM      6  O5  IDS C   1      31.095  73.986  91.6460  0.00  0.00     0.000 O
ATOM      7   O  IDS C   1      29.002  76.031  89.6060  0.00  0.00     0.000 O
ATOM      9  HD  IDS C   1      28.715  75.282  89.2810  0.00  0.00     0.000 HD
ATOM      9   O  IDS C   1      28.323  73.115  91.7160  0.00  0.00     0.000 O
ATOM     11  HD  IDS C   1      28.035  72.366  91.3910  0.00  0.00     0.000 HD
ENDROOT
BRANCH 2 11
ATOM     11   O  IDS C   1      29.055  75.291  93.2080  0.00  0.00     0.000 O
ATOM     12   S  IDS C   1      28.612  76.266  94.3940  0.00  0.00     0.000 S
ATOM     13   O  IDS C   1      27.495  75.554  94.9750  0.00  0.00     0.000 OA
ATOM     14   O  IDS C   1      28.239  77.548  93.8460  0.00  0.00     0.000 OA
ATOM     15   O  IDS C   1      29.763  76.332  95.2590  0.00  0.00     0.000 OA
ENDBRANCH 2 11
BRANCH 5 16
ATOM     16   C  IDS C   1      30.679  71.993  90.4210  0.00  0.00     0.000 C
ATOM     17   O  IDS C   1      31.829  71.617  90.3320  0.00  0.00     0.000 OA
ATOM     18   O  IDS C   1      29.780  71.198  90.4220  0.00  0.00     0.000 OA
ENDBRANCH 5 16
BRANCH 1 19
ATOM     19  O4  SGN C   2      31.795  76.089  90.8880  0.00  0.00     0.000 O
BRANCH 19 23
ATOM     20  C1  SGN C   2      35.685  77.326  90.0140  0.00  0.00     0.000 C
ATOM     21  C2  SGN C   2      35.382  75.835  89.8270  0.00  0.00     0.000 C
ATOM     22  C3  SGN C   2      33.873  75.620  89.7560  0.00  0.00     0.000 C
ATOM     23  C4  SGN C   2      33.215  76.182  91.0110  0.00  0.00     0.000 C
ATOM     24  C5  SGN C   2      33.619  77.647  91.1970  0.00  0.00     0.000 C
ATOM     25  O5  SGN C   2      35.054  77.760  91.2080  0.00  0.00     0.000 O
ATOM     26   O  SGN C   2      33.573  74.237  89.5980  0.00  0.00     0.000 O
ATOM     28  HD  SGN C   2      33.480  73.392  89.4350  0.00  0.00     0.000 HD
BRANCH 21 30
ATOM     28   N  SGN C   2      36.378  75.696  88.7550  0.00  0.00     0.000 N
ATOM     30  HD  SGN C   2      36.225  75.115  88.1320  0.00  0.00     0.000 HD
ATOM     30   S  SGN C   2      37.530  74.589  88.8320  0.00  0.00     0.000 S
ATOM     31   O  SGN C   2      36.853  73.355  89.0490  0.00  0.00     0.000 OA
ATOM     32   O  SGN C   2      38.377  74.743  87.7080  0.00  0.00     0.000 OA
ATOM     33   O  SGN C   2      38.365  74.997  90.0930  0.00  0.00     0.000 OA
ENDBRANCH 21 30
BRANCH 24 34
ATOM     34   C  SGN C   2      33.135  78.250  92.4950  0.00  0.00     0.000 C
ATOM     35   O  SGN C   2      31.922  78.982  92.2460  0.00  0.00     0.000 O
ATOM     36   S  SGN C   2      31.496  80.070  93.3340  0.00  0.00     0.000 S
ATOM     37   O  SGN C   2      32.658  80.924  93.4760  0.00  0.00     0.000 OA
ATOM     38   O  SGN C   2      30.350  80.748  92.7770  0.00  0.00     0.000 OA
ATOM     39   O  SGN C   2      31.196  79.289  94.5090  0.00  0.00     0.000 OA
ENDBRANCH 24 34
BRANCH 20 40
ATOM     40  O4  IDS C   3      35.356  78.150  89.0210  0.00  0.00     0.000 O
BRANCH 40 44
ATOM     41  C1  IDS C   3      34.838  80.207  86.2060  0.00  0.00     0.000 C
ATOM     42  C2  IDS C   3      35.689  78.943  86.1250  0.00  0.00     0.000 C
ATOM     43  C3  IDS C   3      36.752  78.947  87.2200  0.00  0.00     0.000 C
ATOM     44  C4  IDS C   3      36.154  79.253  88.5840  0.00  0.00     0.000 C
ATOM     45  C5  IDS C   3      35.283  80.525  88.5030  0.00  0.00     0.000 C
ATOM     46  O5  IDS C   3      34.274  80.348  87.5070  0.00  0.00     0.000 O
ATOM     47   O  IDS C   3      37.755  79.909  86.9030  0.00  0.00     0.000 O
ATOM     49  HD  IDS C   3      37.363  79.144  86.7940  0.00  0.00     0.000 HD
BRANCH 42 49
ATOM     49   O  IDS C   3      34.837  77.744  86.2960  0.00  0.00     0.000 O
ATOM     50   S  IDS C   3      34.945  76.537  85.2480  0.00  0.00     0.000 S
ATOM     51   O  IDS C   3      36.225  75.939  85.5590  0.00  0.00     0.000 OA
ATOM     52   O  IDS C   3      34.891  77.065  83.8950  0.00  0.00     0.000 OA
ATOM     53   O  IDS C   3      33.829  75.660  85.5340  0.00  0.00     0.000 OA
ENDBRANCH 42 49
BRANCH 45 54
ATOM     54   C  IDS C   3      34.613  80.881  89.8200  0.00  0.00     0.000 C
ATOM     55   O  IDS C   3      35.286  81.066  90.8010  0.00  0.00     0.000 OA
ATOM     56   O  IDS C   3      33.402  80.961  89.8820  0.00  0.00     0.000 OA
ENDBRANCH 45 54
BRANCH 41 57
ATOM     57  O4  SGN C   4      35.550  81.194  85.6470  0.00  0.00     0.000 O
BRANCH 57 61
ATOM     58  C1  SGN C   4      34.900  85.051  84.1530  0.00  0.00     0.000 C
ATOM     59  C2  SGN C   4      34.541  84.812  85.6290  0.00  0.00     0.000 C
ATOM     60  C3  SGN C   4      35.192  83.526  86.1560  0.00  0.00     0.000 C
ATOM     61  C4  SGN C   4      34.825  82.363  85.2500  0.00  0.00     0.000 C
ATOM     62  C5  SGN C   4      35.181  82.680  83.7990  0.00  0.00     0.000 C
ATOM     63  O5  SGN C   4      34.557  83.909  83.3810  0.00  0.00     0.000 O
BRANCH 59 66
ATOM     64   N  SGN C   4      34.880  86.076  86.2900  0.00  0.00     0.000 N
ATOM     66  HD  SGN C   4      34.706  85.243  86.1280  0.00  0.00     0.000 HD
ATOM     66   O  SGN C   4      34.401  87.996  87.7120  0.00  0.00     0.000 OA
ATOM     67   O  SGN C   4      32.680  87.147  86.1760  0.00  0.00     0.000 OA
ATOM     68   S  SGN C   4      33.796  86.804  87.2230  0.00  0.00     0.000 S
ATOM     69   O  SGN C   4      33.287  85.853  88.1440  0.00  0.00     0.000 OA
ENDBRANCH 59 66
BRANCH 62 70
ATOM     70   C  SGN C   4      34.705  81.599  82.8610  0.00  0.00     0.000 C
ATOM     71   S  SGN C   4      32.631  80.671  81.6750  0.00  0.00     0.000 S
ATOM     72   O  SGN C   4      33.398  80.563  80.4500  0.00  0.00     0.000 OA
ATOM     73   O  SGN C   4      32.702  79.485  82.5040  0.00  0.00     0.000 OA
ATOM     74   O  SGN C   4      31.287  81.162  81.4740  0.00  0.00     0.000 OA
ATOM     75   O  SGN C   4      33.340  81.832  82.4950  0.00  0.00     0.000 O
ENDBRANCH 62 70
ENDBRANCH 57 61
ENDBRANCH 41 57
ENDBRANCH 40 44
ENDBRANCH 20 40
ENDBRANCH 19 23
ENDBRANCH 1 19
TORSDOF 14
ENDMDL
MODEL 92
REMARK VINA RESULT:      -0.3     89.009     92.213
ROOT
ATOM      1  C1  IDS C   1      56.091  88.107  23.8230  0.00  0.00     0.000 C
ATOM      2  C2  IDS C   1      54.896  87.176  23.9280  0.00  0.00     0.000 C
ATOM      3  C3  IDS C   1      55.093  86.170  25.0550  0.00  0.00     0.000 C
ATOM      4  C4  IDS C   1      55.475  86.870  26.3590  0.00  0.00     0.000 C
ATOM      5  C5  IDS C   1      56.633  87.858  26.1160  0.00  0.00     0.000 C
ATOM      6  O5  IDS C   1      56.302  88.766  25.0710  0.00  0.00     0.000 O
ATOM      7   O  IDS C   1      56.098  85.226  24.6810  0.00  0.00     0.000 O
ATOM      9  HD  IDS C   1      56.170  85.203  25.5440  0.00  0.00     0.000 HD
ATOM      9   O  IDS C   1      54.334  87.586  26.8560  0.00  0.00     0.000 O
ATOM     11  HD  IDS C   1      54.406  87.563  27.7180  0.00  0.00     0.000 HD
ENDROOT
BRANCH 2 11
ATOM     11   O  IDS C   1      53.670  87.950  24.2250  0.00  0.00     0.000 O
ATOM     12   S  IDS C   1      52.508  88.082  23.1360  0.00  0.00     0.000 S
ATOM     13   O  IDS C   1      51.318  88.101  23.9590  0.00  0.00     0.000 OA
ATOM     14   O  IDS C   1      52.557  86.949  22.2440  0.00  0.00     0.000 OA
ATOM     15   O  IDS C   1      52.770  89.336  22.4760  0.00  0.00     0.000 OA
ENDBRANCH 2 11
BRANCH 5 16
ATOM     16   C  IDS C   1      56.992  88.676  27.3430  0.00  0.00     0.000 C
ATOM     17   O  IDS C   1      57.881  89.496  27.2590  0.00  0.00     0.000 OA
ATOM     18   O  IDS C   1      56.420  88.506  28.3840  0.00  0.00     0.000 OA
ENDBRANCH 5 16
BRANCH 1 19
ATOM     19  O4  SGN C   2      57.191  87.683  23.1930  0.00  0.00     0.000 O
BRANCH 19 23
ATOM     20  C1  SGN C   2      60.477  88.824  20.8850  0.00  0.00     0.000 C
ATOM     21  C2  SGN C   2      60.502  89.235  22.3620  0.00  0.00     0.000 C
ATOM     22  C3  SGN C   2      59.494  88.399  23.1470  0.00  0.00     0.000 C
ATOM     23  C4  SGN C   2      58.107  88.558  22.5340  0.00  0.00     0.000 C
ATOM     24  C5  SGN C   2      58.157  88.220  21.0420  0.00  0.00     0.000 C
ATOM     25  O5  SGN C   2      59.161  89.022  20.3930  0.00  0.00     0.000 O
ATOM     26   O  SGN C   2      59.493  88.778  24.5190  0.00  0.00     0.000 O
ATOM     28  HD  SGN C   2      59.603  89.020  25.3430  0.00  0.00     0.000 HD
BRANCH 21 30
ATOM     28   N  SGN C   2      61.864  89.607  21.9590  0.00  0.00     0.000 N
ATOM     30  HD  SGN C   2      62.515  89.090  22.2030  0.00  0.00     0.000 HD
ATOM     30   S  SGN C   2      62.815  90.452  22.9290  0.00  0.00     0.000 S
ATOM     31   O  SGN C   2      62.835  89.732  24.1570  0.00  0.00     0.000 OA
ATOM     32   O  SGN C   2      64.027  90.721  22.2470  0.00  0.00     0.000 OA
ATOM     33   O  SGN C   2      62.069  91.819  23.0960  0.00  0.00     0.000 OA
ENDBRANCH 21 30
BRANCH 24 34
ATOM     34   C  SGN C   2      56.861  88.491  20.3150  0.00  0.00     0.000 C
ATOM     35   O  SGN C   2      56.201  87.239  20.0540  0.00  0.00     0.000 O
ATOM     36   S  SGN C   2      55.087  87.231  18.9110  0.00  0.00     0.000 S
ATOM     37   O  SGN C   2      55.750  87.780  17.7450  0.00  0.00     0.000 OA
ATOM     38   O  SGN C   2      54.700  85.850  18.7540  0.00  0.00     0.000 OA
ATOM     39   O  SGN C   2      54.040  88.072  19.4390  0.00  0.00     0.000 OA
ENDBRANCH 24 34
BRANCH 20 40
ATOM     40  O4  IDS C   3      60.877  87.592  20.5830  0.00  0.00     0.000 O
BRANCH 40 44
ATOM     41  C1  IDS C   3      62.694  84.656  19.8690  0.00  0.00     0.000 C
ATOM     42  C2  IDS C   3      63.385  85.919  20.3760  0.00  0.00     0.000 C
ATOM     43  C3  IDS C   3      62.992  87.119  19.5190  0.00  0.00     0.000 C
ATOM     44  C4  IDS C   3      61.485  87.217  19.3440  0.00  0.00     0.000 C
ATOM     45  C5  IDS C   3      60.921  85.859  18.8770  0.00  0.00     0.000 C
ATOM     46  O5  IDS C   3      61.282  84.845  19.8170  0.00  0.00     0.000 O
ATOM     47   O  IDS C   3      63.624  87.018  18.2450  0.00  0.00     0.000 O
ATOM     49  HD  IDS C   3      63.634  87.180  19.0960  0.00  0.00     0.000 HD
BRANCH 42 49
ATOM     49   O  IDS C   3      62.990  86.188  21.7780  0.00  0.00     0.000 O
ATOM     50   S  IDS C   3      64.109  86.233  22.9240  0.00  0.00     0.000 S
ATOM     51   O  IDS C   3      64.811  87.468  22.6560  0.00  0.00     0.000 OA
ATOM     52   O  IDS C   3      64.968  85.066  22.8060  0.00  0.00     0.000 OA
ATOM     53   O  IDS C   3      63.391  86.254  24.1810  0.00  0.00     0.000 OA
ENDBRANCH 42 49
BRANCH 45 54
ATOM     54   C  IDS C   3      59.409  85.858  18.7150  0.00  0.00     0.000 C
ATOM     55   O  IDS C   3      58.892  86.617  17.9360  0.00  0.00     0.000 OA
ATOM     56   O  IDS C   3      58.727  85.105  19.3830  0.00  0.00     0.000 OA
ENDBRANCH 45 54
BRANCH 41 57
ATOM     57  O4  SGN C   4      63.378  84.238  18.7980  0.00  0.00     0.000 O
BRANCH 57 61
ATOM     58  C1  SGN C   4      63.373  80.981  16.1670  0.00  0.00     0.000 C
ATOM     59  C2  SGN C   4      62.192  81.959  16.0590  0.00  0.00     0.000 C
ATOM     60  C3  SGN C   4      62.507  83.289  16.7580  0.00  0.00     0.000 C
ATOM     61  C4  SGN C   4      62.938  83.020  18.1900  0.00  0.00     0.000 C
ATOM     62  C5  SGN C   4      64.094  82.020  18.2220  0.00  0.00     0.000 C
ATOM     63  O5  SGN C   4      63.737  80.809  17.5290  0.00  0.00     0.000 O
BRANCH 59 66
ATOM     64   N  SGN C   4      61.882  81.989  14.6260  0.00  0.00     0.000 N
ATOM     66  HD  SGN C   4      61.951  82.189  15.4660  0.00  0.00     0.000 HD
ATOM     66   O  SGN C   4      60.387  81.826  12.7090  0.00  0.00     0.000 OA
ATOM     67   O  SGN C   4      60.139  80.269  14.5950  0.00  0.00     0.000 OA
ATOM     68   S  SGN C   4      60.375  81.748  14.1300  0.00  0.00     0.000 S
ATOM     69   O  SGN C   4      59.519  82.605  14.8680  0.00  0.00     0.000 OA
ENDBRANCH 59 66
BRANCH 62 70
ATOM     70   C  SGN C   4      64.452  81.633  19.6350  0.00  0.00     0.000 C
ATOM     71   S  SGN C   4      63.485  80.718  21.8260  0.00  0.00     0.000 S
ATOM     72   O  SGN C   4      64.614  79.815  21.9300  0.00  0.00     0.000 OA
ATOM     73   O  SGN C   4      63.719  82.004  22.4530  0.00  0.00     0.000 OA
ATOM     74   O  SGN C   4      62.225  80.113  22.1910  0.00  0.00     0.000 OA
ATOM     75   O  SGN C   4      63.335  81.001  20.2710  0.00  0.00     0.000 O
ENDBRANCH 62 70
ENDBRANCH 57 61
ENDBRANCH 41 57
ENDBRANCH 40 44
ENDBRANCH 20 40
ENDBRANCH 19 23
ENDBRANCH 1 19
TORSDOF 14
ENDMDL
MODEL 93
REMARK VINA RESULT:      -0.3     78.466     82.697
ROOT
ATOM      1  C1  IDS C   1      80.252  48.486  32.2140  0.00  0.00     0.000 C
ATOM      2  C2  IDS C   1      79.057  49.244  31.6650  0.00  0.00     0.000 C
ATOM      3  C3  IDS C   1      77.926  48.287  31.3100  0.00  0.00     0.000 C
ATOM      4  C4  IDS C   1      77.608  47.351  32.4770  0.00  0.00     0.000 C
ATOM      5  C5  IDS C   1      78.904  46.710  33.0150  0.00  0.00     0.000 C
ATOM      6  O5  IDS C   1      79.856  47.715  33.3470  0.00  0.00     0.000 O
ATOM      7   O  IDS C   1      78.285  47.534  30.1500  0.00  0.00     0.000 O
ATOM      9  HD  IDS C   1      77.737  46.984  30.5340  0.00  0.00     0.000 HD
ATOM      9   O  IDS C   1      76.981  48.108  33.5240  0.00  0.00     0.000 O
ATOM     11  HD  IDS C   1      76.434  47.558  33.9080  0.00  0.00     0.000 HD
ENDROOT
BRANCH 2 11
ATOM     11   O  IDS C   1      78.543  50.192  32.6790  0.00  0.00     0.000 O
ATOM     12   S  IDS C   1      78.680  51.769  32.4620  0.00  0.00     0.000 S
ATOM     13   O  IDS C   1      77.469  52.269  33.0750  0.00  0.00     0.000 OA
ATOM     14   O  IDS C   1      78.756  52.053  31.0490  0.00  0.00     0.000 OA
ATOM     15   O  IDS C   1      79.878  52.131  33.1790  0.00  0.00     0.000 OA
ENDBRANCH 2 11
BRANCH 5 16
ATOM     16   C  IDS C   1      78.682  45.856  34.2500  0.00  0.00     0.000 C
ATOM     17   O  IDS C   1      79.637  45.314  34.7650  0.00  0.00     0.000 OA
ATOM     18   O  IDS C   1      77.581  45.703  34.7030  0.00  0.00     0.000 OA
ENDBRANCH 5 16
BRANCH 1 19
ATOM     19  O4  SGN C   2      81.087  47.885  31.3620  0.00  0.00     0.000 O
BRANCH 19 23
ATOM     20  C1  SGN C   2      85.036  46.715  30.6790  0.00  0.00     0.000 C
ATOM     21  C2  SGN C   2      84.262  45.925  31.7400  0.00  0.00     0.000 C
ATOM     22  C3  SGN C   2      82.763  46.162  31.5690  0.00  0.00     0.000 C
ATOM     23  C4  SGN C   2      82.469  47.656  31.6430  0.00  0.00     0.000 C
ATOM     24  C5  SGN C   2      83.331  48.407  30.6240  0.00  0.00     0.000 C
ATOM     25  O5  SGN C   2      84.720  48.089  30.8320  0.00  0.00     0.000 O
ATOM     26   O  SGN C   2      82.029  45.448  32.5570  0.00  0.00     0.000 O
ATOM     28  HD  SGN C   2      81.657  44.931  33.1440  0.00  0.00     0.000 HD
BRANCH 21 30
ATOM     28   N  SGN C   2      85.480  45.111  31.6370  0.00  0.00     0.000 N
ATOM     30  HD  SGN C   2      85.433  44.364  31.2010  0.00  0.00     0.000 HD
ATOM     30   S  SGN C   2      85.777  43.927  32.6720  0.00  0.00     0.000 S
ATOM     31   O  SGN C   2      84.618  43.101  32.6400  0.00  0.00     0.000 OA
ATOM     32   O  SGN C   2      87.047  43.377  32.3730  0.00  0.00     0.000 OA
ATOM     33   O  SGN C   2      85.906  44.654  34.0540  0.00  0.00     0.000 OA
ENDBRANCH 21 30
BRANCH 24 34
ATOM     34   C  SGN C   2      83.218  49.910  30.7230  0.00  0.00     0.000 C
ATOM     35   O  SGN C   2      82.415  50.391  29.6310  0.00  0.00     0.000 O
ATOM     36   S  SGN C   2      82.548  51.938  29.2600  0.00  0.00     0.000 S
ATOM     37   O  SGN C   2      83.968  52.149  29.0600  0.00  0.00     0.000 OA
ATOM     38   O  SGN C   2      81.766  52.119  28.0610  0.00  0.00     0.000 OA
ATOM     39   O  SGN C   2      82.012  52.620  30.4130  0.00  0.00     0.000 OA
ENDBRANCH 24 34
BRANCH 20 40
ATOM     40  O4  IDS C   3      84.867  46.366  29.4060  0.00  0.00     0.000 O
BRANCH 40 44
ATOM     41  C1  IDS C   3      84.945  44.830  26.2340  0.00  0.00     0.000 C
ATOM     42  C2  IDS C   3      85.608  44.187  27.4490  0.00  0.00     0.000 C
ATOM     43  C3  IDS C   3      86.542  45.183  28.1330  0.00  0.00     0.000 C
ATOM     44  C4  IDS C   3      85.856  46.516  28.3850  0.00  0.00     0.000 C
ATOM     45  C5  IDS C   3      85.190  47.018  27.0860  0.00  0.00     0.000 C
ATOM     46  O5  IDS C   3      84.274  46.031  26.6080  0.00  0.00     0.000 O
ATOM     47   O  IDS C   3      87.700  45.377  27.3250  0.00  0.00     0.000 O
ATOM     49  HD  IDS C   3      87.216  44.913  27.8730  0.00  0.00     0.000 HD
BRANCH 42 49
ATOM     49   O  IDS C   3      84.579  43.756  28.4230  0.00  0.00     0.000 O
ATOM     50   S  IDS C   3      84.466  42.209  28.8250  0.00  0.00     0.000 S
ATOM     51   O  IDS C   3      85.640  41.990  29.6400  0.00  0.00     0.000 OA
ATOM     52   O  IDS C   3      84.462  41.395  27.6200  0.00  0.00     0.000 OA
ATOM     53   O  IDS C   3      83.231  42.081  29.5700  0.00  0.00     0.000 OA
ENDBRANCH 42 49
BRANCH 45 54
ATOM     54   C  IDS C   3      84.445  48.332  27.2600  0.00  0.00     0.000 C
ATOM     55   O  IDS C   3      85.042  49.313  27.6220  0.00  0.00     0.000 OA
ATOM     56   O  IDS C   3      83.249  48.384  27.0500  0.00  0.00     0.000 OA
ENDBRANCH 45 54
BRANCH 41 57
ATOM     57  O4  SGN C   4      85.844  44.816  25.2430  0.00  0.00     0.000 O
BRANCH 57 61
ATOM     58  C1  SGN C   4      86.020  45.785  21.1740  0.00  0.00     0.000 C
ATOM     59  C2  SGN C   4      85.899  46.958  22.1590  0.00  0.00     0.000 C
ATOM     60  C3  SGN C   4      86.254  46.523  23.5870  0.00  0.00     0.000 C
ATOM     61  C4  SGN C   4      85.411  45.319  23.9750  0.00  0.00     0.000 C
ATOM     62  C5  SGN C   4      85.558  44.206  22.9390  0.00  0.00     0.000 C
ATOM     63  O5  SGN C   4      85.232  44.692  21.6230  0.00  0.00     0.000 O
BRANCH 59 66
ATOM     64   N  SGN C   4      86.695  48.026  21.5450  0.00  0.00     0.000 N
ATOM     66  HD  SGN C   4      86.270  47.526  22.1100  0.00  0.00     0.000 HD
ATOM     66   O  SGN C   4      87.051  50.293  20.7280  0.00  0.00     0.000 OA
ATOM     67   O  SGN C   4      84.896  49.174  20.3420  0.00  0.00     0.000 OA
ATOM     68   S  SGN C   4      86.057  49.485  21.3490  0.00  0.00     0.000 S
ATOM     69   O  SGN C   4      85.497  49.898  22.5850  0.00  0.00     0.000 OA
ENDBRANCH 59 66
BRANCH 62 70
ATOM     70   C  SGN C   4      84.629  43.053  23.2300  0.00  0.00     0.000 C
ATOM     71   S  SGN C   4      82.176  42.445  23.6560  0.00  0.00     0.000 S
ATOM     72   O  SGN C   4      82.310  41.326  22.7450  0.00  0.00     0.000 OA
ATOM     73   O  SGN C   4      82.509  42.112  25.0270  0.00  0.00     0.000 OA
ATOM     74   O  SGN C   4      80.927  43.157  23.5170  0.00  0.00     0.000 OA
ATOM     75   O  SGN C   4      83.267  43.493  23.1740  0.00  0.00     0.000 O
ENDBRANCH 62 70
ENDBRANCH 57 61
ENDBRANCH 41 57
ENDBRANCH 40 44
ENDBRANCH 20 40
ENDBRANCH 19 23
ENDBRANCH 1 19
TORSDOF 14
ENDMDL
MODEL 94
REMARK VINA RESULT:      -0.3     94.711     99.912
ROOT
ATOM      1  C1  IDS C   1      18.388 106.886  40.6610  0.00  0.00     0.000 C
ATOM      2  C2  IDS C   1      19.600 106.022  40.3610  0.00  0.00     0.000 C
ATOM      3  C3  IDS C   1      20.702 106.845  39.7050  0.00  0.00     0.000 C
ATOM      4  C4  IDS C   1      21.002 108.109  40.5110  0.00  0.00     0.000 C
ATOM      5  C5  IDS C   1      19.693 108.856  40.8380  0.00  0.00     0.000 C
ATOM      6  O5  IDS C   1      18.771 107.986  41.4850  0.00  0.00     0.000 O
ATOM      7   O  IDS C   1      20.314 107.183  38.3710  0.00  0.00     0.000 O
ATOM      9  HD  IDS C   1      20.849 107.839  38.5540  0.00  0.00     0.000 HD
ATOM      9   O  IDS C   1      21.657 107.737  41.7340  0.00  0.00     0.000 O
ATOM     11  HD  IDS C   1      22.192 108.394  41.9160  0.00  0.00     0.000 HD
ENDROOT
BRANCH 2 11
ATOM     11   O  IDS C   1      20.147 105.457  41.6140  0.00  0.00     0.000 O
ATOM     12   S  IDS C   1      20.052 103.889  41.9100  0.00  0.00     0.000 S
ATOM     13   O  IDS C   1      21.280 103.638  42.6300  0.00  0.00     0.000 OA
ATOM     14   O  IDS C   1      19.974 103.171  40.6600  0.00  0.00     0.000 OA
ATOM     15   O  IDS C   1      18.869 103.744  42.7220  0.00  0.00     0.000 OA
ENDBRANCH 2 11
BRANCH 5 16
ATOM     16   C  IDS C   1      19.900 110.062  41.7360  0.00  0.00     0.000 C
ATOM     17   O  IDS C   1      18.934 110.715  42.0700  0.00  0.00     0.000 OA
ATOM     18   O  IDS C   1      20.999 110.377  42.1000  0.00  0.00     0.000 OA
ENDBRANCH 5 16
BRANCH 1 19
ATOM     19  O4  SGN C   2      17.531 107.167  39.6740  0.00  0.00     0.000 O
BRANCH 19 23
ATOM     20  C1  SGN C   2      13.547 107.966  38.7170  0.00  0.00     0.000 C
ATOM     21  C2  SGN C   2      14.307 109.070  39.4620  0.00  0.00     0.000 C
ATOM     22  C3  SGN C   2      15.810 108.826  39.3520  0.00  0.00     0.000 C
ATOM     23  C4  SGN C   2      16.145 107.439  39.8900  0.00  0.00     0.000 C
ATOM     24  C5  SGN C   2      15.297 106.385  39.1740  0.00  0.00     0.000 C
ATOM     25  O5  SGN C   2      13.902 106.718  39.2920  0.00  0.00     0.000 O
ATOM     26   O  SGN C   2      16.531 109.833  40.0520  0.00  0.00     0.000 O
ATOM     28  HD  SGN C   2      16.893 110.518  40.4390  0.00  0.00     0.000 HD
BRANCH 21 30
ATOM     28   N  SGN C   2      13.066 109.780  39.1250  0.00  0.00     0.000 N
ATOM     30  HD  SGN C   2      13.090 110.352  38.4750  0.00  0.00     0.000 HD
ATOM     30   S  SGN C   2      12.744 111.223  39.7370  0.00  0.00     0.000 S
ATOM     31   O  SGN C   2      13.880 112.024  39.4290  0.00  0.00     0.000 OA
ATOM     32   O  SGN C   2      11.458 111.620  39.2980  0.00  0.00     0.000 OA
ATOM     33   O  SGN C   2      12.643 110.967  41.2790  0.00  0.00     0.000 OA
ENDBRANCH 21 30
BRANCH 24 34
ATOM     34   C  SGN C   2      15.452 104.994  39.7410  0.00  0.00     0.000 C
ATOM     35   O  SGN C   2      16.261 104.211  38.8460  0.00  0.00     0.000 O
ATOM     36   S  SGN C   2      16.169 102.623  38.9850  0.00  0.00     0.000 S
ATOM     37   O  SGN C   2      14.753 102.326  38.8830  0.00  0.00     0.000 OA
ATOM     38   O  SGN C   2      16.947 102.091  37.8930  0.00  0.00     0.000 OA
ATOM     39   O  SGN C   2      16.731 102.354  40.2860  0.00  0.00     0.000 OA
ENDBRANCH 24 34
BRANCH 20 40
ATOM     40  O4  IDS C   3      13.698 107.898  37.3970  0.00  0.00     0.000 O
BRANCH 40 44
ATOM     41  C1  IDS C   3      13.557 108.348  33.9030  0.00  0.00     0.000 C
ATOM     42  C2  IDS C   3      12.886 109.327  34.8610  0.00  0.00     0.000 C
ATOM     43  C3  IDS C   3      11.984 108.578  35.8400  0.00  0.00     0.000 C
ATOM     44  C4  IDS C   3      12.707 107.409  36.4900  0.00  0.00     0.000 C
ATOM     45  C5  IDS C   3      13.376 106.537  35.4070  0.00  0.00     0.000 C
ATOM     46  O5  IDS C   3      14.262 107.343  34.6270  0.00  0.00     0.000 O
ATOM     47   O  IDS C   3      10.825 108.111  35.1530  0.00  0.00     0.000 O
ATOM     49  HD  IDS C   3      11.301 108.736  35.5180  0.00  0.00     0.000 HD
BRANCH 42 49
ATOM     49   O  IDS C   3      13.910 110.068  35.6330  0.00  0.00     0.000 O
ATOM     50   S  IDS C   3      13.984 111.665  35.5250  0.00  0.00     0.000 S
ATOM     51   O  IDS C   3      12.810 112.103  36.2460  0.00  0.00     0.000 OA
ATOM     52   O  IDS C   3      13.956 112.056  34.1250  0.00  0.00     0.000 OA
ATOM     53   O  IDS C   3      15.220 112.051  36.1720  0.00  0.00     0.000 OA
ENDBRANCH 42 49
BRANCH 45 54
ATOM     54   C  IDS C   3      14.157 105.364  35.9770  0.00  0.00     0.000 C
ATOM     55   O  IDS C   3      13.589 104.535  36.6410  0.00  0.00     0.000 OA
ATOM     56   O  IDS C   3      15.352 105.275  35.7750  0.00  0.00     0.000 OA
ENDBRANCH 45 54
BRANCH 41 57
ATOM     57  O4  SGN C   4      12.651 108.026  32.9720  0.00  0.00     0.000 O
BRANCH 57 61
ATOM     58  C1  SGN C   4      12.471 105.812  29.4240  0.00  0.00     0.000 C
ATOM     59  C2  SGN C   4      12.632 105.015  30.7290  0.00  0.00     0.000 C
ATOM     60  C3  SGN C   4      12.275 105.873  31.9500  0.00  0.00     0.000 C
ATOM     61  C4  SGN C   4      13.088 107.157  31.9230  0.00  0.00     0.000 C
ATOM     62  C5  SGN C   4      12.904 107.880  30.5900  0.00  0.00     0.000 C
ATOM     63  O5  SGN C   4      13.232 107.009  29.4910  0.00  0.00     0.000 O
BRANCH 59 66
ATOM     64   N  SGN C   4      11.861 103.789  30.4970  0.00  0.00     0.000 N
ATOM     66  HD  SGN C   4      12.276 104.452  30.8680  0.00  0.00     0.000 HD
ATOM     66   O  SGN C   4      11.561 101.372  30.4480  0.00  0.00     0.000 OA
ATOM     67   O  SGN C   4      13.681 102.361  29.6920  0.00  0.00     0.000 OA
ATOM     68   S  SGN C   4      12.537 102.359  30.7640  0.00  0.00     0.000 S
ATOM     69   O  SGN C   4      13.118 102.373  32.0580  0.00  0.00     0.000 OA
ENDBRANCH 59 66
BRANCH 62 70
ATOM     70   C  SGN C   4      13.802 109.087  30.4850  0.00  0.00     0.000 C
ATOM     71   S  SGN C   4      16.241 109.857  30.6610  0.00  0.00     0.000 S
ATOM     72   O  SGN C   4      16.072 110.624  29.4420  0.00  0.00     0.000 OA
ATOM     73   O  SGN C   4      15.906 110.602  31.8580  0.00  0.00     0.000 OA
ATOM     74   O  SGN C   4      17.508 109.167  30.7380  0.00  0.00     0.000 OA
ATOM     75   O  SGN C   4      15.175 108.685  30.5530  0.00  0.00     0.000 O
ENDBRANCH 62 70
ENDBRANCH 57 61
ENDBRANCH 41 57
ENDBRANCH 40 44
ENDBRANCH 20 40
ENDBRANCH 19 23
ENDBRANCH 1 19
TORSDOF 14
ENDMDL
MODEL 95
REMARK VINA RESULT:      -0.3    147.057    151.043
ROOT
ATOM      1  C1  IDS C   1      88.882 105.113 110.4810  0.00  0.00     0.000 C
ATOM      2  C2  IDS C   1      88.272 106.350 111.1170  0.00  0.00     0.000 C
ATOM      3  C3  IDS C   1      86.874 106.607 110.5680  0.00  0.00     0.000 C
ATOM      4  C4  IDS C   1      86.007 105.351 110.6540  0.00  0.00     0.000 C
ATOM      5  C5  IDS C   1      86.761 104.142 110.0640  0.00  0.00     0.000 C
ATOM      6  O5  IDS C   1      88.029 103.990 110.6940  0.00  0.00     0.000 O
ATOM      7   O  IDS C   1      86.969 107.058 109.2160  0.00  0.00     0.000 O
ATOM      9  HD  IDS C   1      86.183 106.696 109.2090  0.00  0.00     0.000 HD
ATOM      9   O  IDS C   1      85.695 105.092 112.0310  0.00  0.00     0.000 O
ATOM     11  HD  IDS C   1      84.908 104.730 112.0240  0.00  0.00     0.000 HD
ENDROOT
BRANCH 2 11
ATOM     11   O  IDS C   1      88.153 106.164 112.5810  0.00  0.00     0.000 O
ATOM     12   S  IDS C   1      89.053 107.021 113.5860  0.00  0.00     0.000 S
ATOM     13   O  IDS C   1      88.164 107.208 114.7110  0.00  0.00     0.000 OA
ATOM     14   O  IDS C   1      89.428 108.262 112.9520  0.00  0.00     0.000 OA
ATOM     15   O  IDS C   1      90.179 106.171 113.8790  0.00  0.00     0.000 OA
ENDBRANCH 2 11
BRANCH 5 16
ATOM     16   C  IDS C   1      86.008 102.833 110.2180  0.00  0.00     0.000 C
ATOM     17   O  IDS C   1      86.517 101.814 109.8020  0.00  0.00     0.000 OA
ATOM     18   O  IDS C   1      84.922 102.804 110.7270  0.00  0.00     0.000 OA
ENDBRANCH 5 16
BRANCH 1 19
ATOM     19  O4  SGN C   2      89.425 105.211 109.2640  0.00  0.00     0.000 O
BRANCH 19 23
ATOM     20  C1  SGN C   2      92.384 103.758 106.7030  0.00  0.00     0.000 C
ATOM     21  C2  SGN C   2      91.202 102.823 106.9840  0.00  0.00     0.000 C
ATOM     22  C3  SGN C   2      90.034 103.624 107.5520  0.00  0.00     0.000 C
ATOM     23  C4  SGN C   2      90.483 104.369 108.8040  0.00  0.00     0.000 C
ATOM     24  C5  SGN C   2      91.717 105.219 108.4890  0.00  0.00     0.000 C
ATOM     25  O5  SGN C   2      92.747 104.391 107.9190  0.00  0.00     0.000 O
ATOM     26   O  SGN C   2      88.933 102.768 107.8340  0.00  0.00     0.000 O
ATOM     28  HD  SGN C   2      88.290 102.193 107.9120  0.00  0.00     0.000 HD
BRANCH 21 30
ATOM     28   N  SGN C   2      91.885 102.077 105.9190  0.00  0.00     0.000 N
ATOM     30  HD  SGN C   2      91.540 102.097 105.1240  0.00  0.00     0.000 HD
ATOM     30   S  SGN C   2      91.451 100.584 105.5410  0.00  0.00     0.000 S
ATOM     31   O  SGN C   2      90.051 100.653 105.2870  0.00  0.00     0.000 OA
ATOM     32   O  SGN C   2      92.328 100.101 104.5410  0.00  0.00     0.000 OA
ATOM     33   O  SGN C   2      91.742  99.763 106.8430  0.00  0.00     0.000 OA
ENDBRANCH 21 30
BRANCH 24 34
ATOM     34   C  SGN C   2      92.325 105.880 109.7040  0.00  0.00     0.000 C
ATOM     35   O  SGN C   2      91.990 107.279 109.6910  0.00  0.00     0.000 O
ATOM     36   S  SGN C   2      92.891 108.248 110.5840  0.00  0.00     0.000 S
ATOM     37   O  SGN C   2      94.251 107.983 110.1600  0.00  0.00     0.000 OA
ATOM     38   O  SGN C   2      92.444 109.586 110.2780  0.00  0.00     0.000 OA
ATOM     39   O  SGN C   2      92.609 107.836 111.9380  0.00  0.00     0.000 OA
ENDBRANCH 24 34
BRANCH 20 40
ATOM     40  O4  IDS C   3      92.226 104.682 105.7580  0.00  0.00     0.000 O
BRANCH 40 44
ATOM     41  C1  IDS C   3      91.949 106.492 102.7460  0.00  0.00     0.000 C
ATOM     42  C2  IDS C   3      92.068 104.971 102.7550  0.00  0.00     0.000 C
ATOM     43  C3  IDS C   3      93.272 104.537 103.5870  0.00  0.00     0.000 C
ATOM     44  C4  IDS C   3      93.283 105.208 104.9520  0.00  0.00     0.000 C
ATOM     45  C5  IDS C   3      93.105 106.732 104.7900  0.00  0.00     0.000 C
ATOM     46  O5  IDS C   3      91.895 106.997 104.0770  0.00  0.00     0.000 O
ATOM     47   O  IDS C   3      94.471 104.849 102.8830  0.00  0.00     0.000 O
ATOM     49  HD  IDS C   3      93.761 104.372 103.0150  0.00  0.00     0.000 HD
BRANCH 42 49
ATOM     49   O  IDS C   3      90.847 104.367 103.3370  0.00  0.00     0.000 O
ATOM     50   S  IDS C   3      89.959 103.366 102.4560  0.00  0.00     0.000 S
ATOM     51   O  IDS C   3      90.775 102.174 102.3820  0.00  0.00     0.000 OA
ATOM     52   O  IDS C   3      89.715 103.957 101.1510  0.00  0.00     0.000 OA
ATOM     53   O  IDS C   3      88.733 103.163 103.1990  0.00  0.00     0.000 OA
ENDBRANCH 42 49
BRANCH 45 54
ATOM     54   C  IDS C   3      93.065 107.478 106.1140  0.00  0.00     0.000 C
ATOM     55   O  IDS C   3      94.009 107.421 106.8600  0.00  0.00     0.000 OA
ATOM     56   O  IDS C   3      92.076 108.115 106.4230  0.00  0.00     0.000 OA
ENDBRANCH 45 54
BRANCH 41 57
ATOM     57  O4  SGN C   4      92.846 106.950 101.8650  0.00  0.00     0.000 O
BRANCH 57 61
ATOM     58  C1  SGN C   4      93.966 110.610 100.1680  0.00  0.00     0.000 C
ATOM     59  C2  SGN C   4      94.300 110.406 101.6540  0.00  0.00     0.000 C
ATOM     60  C3  SGN C   4      94.224 108.923 102.0420  0.00  0.00     0.000 C
ATOM     61  C4  SGN C   4      92.867 108.364 101.6460  0.00  0.00     0.000 C
ATOM     62  C5  SGN C   4      92.590 108.628 100.1660  0.00  0.00     0.000 C
ATOM     63  O5  SGN C   4      92.703 110.033  99.8710  0.00  0.00     0.000 O
BRANCH 59 66
ATOM     64   N  SGN C   4      95.579 111.102 101.8330  0.00  0.00     0.000 N
ATOM     66  HD  SGN C   4      94.900 110.572 101.9270  0.00  0.00     0.000 HD
ATOM     66   O  SGN C   4      97.074 112.679 102.9320  0.00  0.00     0.000 OA
ATOM     67   O  SGN C   4      94.714 113.268 102.5790  0.00  0.00     0.000 OA
ATOM     68   S  SGN C   4      95.747 112.172 103.0160  0.00  0.00     0.000 S
ATOM     69   O  SGN C   4      95.304 111.576 104.2250  0.00  0.00     0.000 OA
ENDBRANCH 59 66
BRANCH 62 70
ATOM     70   C  SGN C   4      91.196 108.202  99.7800  0.00  0.00     0.000 C
ATOM     71   S  SGN C   4      88.719 108.481 100.3800  0.00  0.00     0.000 S
ATOM     72   O  SGN C   4      88.412 108.650  98.9740  0.00  0.00     0.000 OA
ATOM     73   O  SGN C   4      88.681 107.099 100.8140  0.00  0.00     0.000 OA
ATOM     74   O  SGN C   4      87.991 109.383 101.2430  0.00  0.00     0.000 OA
ATOM     75   O  SGN C   4      90.228 108.953 100.5240  0.00  0.00     0.000 O
ENDBRANCH 62 70
ENDBRANCH 57 61
ENDBRANCH 41 57
ENDBRANCH 40 44
ENDBRANCH 20 40
ENDBRANCH 19 23
ENDBRANCH 1 19
TORSDOF 14
ENDMDL
MODEL 96
REMARK VINA RESULT:      -0.3     87.269     91.189
ROOT
ATOM      1  C1  IDS C   1      29.251  87.286  61.1710  0.00  0.00     0.000 C
ATOM      2  C2  IDS C   1      30.111  87.304  62.4230  0.00  0.00     0.000 C
ATOM      3  C3  IDS C   1      29.736  88.476  63.3200  0.00  0.00     0.000 C
ATOM      4  C4  IDS C   1      28.230  88.514  63.5790  0.00  0.00     0.000 C
ATOM      5  C5  IDS C   1      27.457  88.397  62.2500  0.00  0.00     0.000 C
ATOM      6  O5  IDS C   1      27.872  87.238  61.5330  0.00  0.00     0.000 O
ATOM      7   O  IDS C   1      30.170  89.696  62.7160  0.00  0.00     0.000 O
ATOM      9  HD  IDS C   1      29.504  89.981  63.1910  0.00  0.00     0.000 HD
ATOM      9   O  IDS C   1      27.875  87.417  64.4350  0.00  0.00     0.000 O
ATOM     11  HD  IDS C   1      27.209  87.702  64.9090  0.00  0.00     0.000 HD
ENDROOT
BRANCH 2 11
ATOM     11   O  IDS C   1      29.907  86.060  63.1990  0.00  0.00     0.000 O
ATOM     12   S  IDS C   1      31.079  84.981  63.3310  0.00  0.00     0.000 S
ATOM     13   O  IDS C   1      30.874  84.468  64.6670  0.00  0.00     0.000 OA
ATOM     14   O  IDS C   1      32.353  85.638  63.1670  0.00  0.00     0.000 OA
ATOM     15   O  IDS C   1      30.801  84.016  62.2960  0.00  0.00     0.000 OA
ENDBRANCH 2 11
BRANCH 5 16
ATOM     16   C  IDS C   1      25.953  88.311  62.4360  0.00  0.00     0.000 C
ATOM     17   O  IDS C   1      25.248  88.201  61.4550  0.00  0.00     0.000 OA
ATOM     18   O  IDS C   1      25.464  88.367  63.5300  0.00  0.00     0.000 OA
ENDBRANCH 5 16
BRANCH 1 19
ATOM     19  O4  SGN C   2      29.561  88.103  60.1600  0.00  0.00     0.000 O
BRANCH 19 23
ATOM     20  C1  SGN C   2      29.500  88.606  56.0160  0.00  0.00     0.000 C
ATOM     21  C2  SGN C   2      28.149  88.693  56.7370  0.00  0.00     0.000 C
ATOM     22  C3  SGN C   2      28.374  88.927  58.2280  0.00  0.00     0.000 C
ATOM     23  C4  SGN C   2      29.253  87.817  58.7950  0.00  0.00     0.000 C
ATOM     24  C5  SGN C   2      30.549  87.716  57.9860  0.00  0.00     0.000 C
ATOM     25  O5  SGN C   2      30.241  87.541  56.5910  0.00  0.00     0.000 O
ATOM     26   O  SGN C   2      27.130  88.994  58.9150  0.00  0.00     0.000 O
ATOM     28  HD  SGN C   2      26.335  89.091  59.2440  0.00  0.00     0.000 HD
BRANCH 21 30
ATOM     28   N  SGN C   2      27.760  89.121  55.3870  0.00  0.00     0.000 N
ATOM     30  HD  SGN C   2      27.622  89.966  55.2530  0.00  0.00     0.000 HD
ATOM     30   S  SGN C   2      26.222  89.302  54.9850  0.00  0.00     0.000 S
ATOM     31   O  SGN C   2      25.678  90.180  55.9660  0.00  0.00     0.000 OA
ATOM     32   O  SGN C   2      26.154  89.645  53.6130  0.00  0.00     0.000 OA
ATOM     33   O  SGN C   2      25.620  87.863  55.1280  0.00  0.00     0.000 OA
ENDBRANCH 21 30
BRANCH 24 34
ATOM     34   C  SGN C   2      31.420  86.547  58.3790  0.00  0.00     0.000 C
ATOM     35   O  SGN C   2      32.537  87.033  59.1440  0.00  0.00     0.000 O
ATOM     36   S  SGN C   2      33.810  86.075  59.2580  0.00  0.00     0.000 S
ATOM     37   O  SGN C   2      34.154  85.753  57.8870  0.00  0.00     0.000 OA
ATOM     38   O  SGN C   2      34.820  86.850  59.9370  0.00  0.00     0.000 OA
ATOM     39   O  SGN C   2      33.330  84.949  60.0210  0.00  0.00     0.000 OA
ENDBRANCH 24 34
BRANCH 20 40
ATOM     40  O4  IDS C   3      30.255  89.701  55.9910  0.00  0.00     0.000 O
BRANCH 40 44
ATOM     41  C1  IDS C   3      31.736  92.829  55.3190  0.00  0.00     0.000 C
ATOM     42  C2  IDS C   3      30.416  92.416  54.6750  0.00  0.00     0.000 C
ATOM     43  C3  IDS C   3      30.554  91.049  54.0110  0.00  0.00     0.000 C
ATOM     44  C4  IDS C   3      31.178  90.027  54.9490  0.00  0.00     0.000 C
ATOM     45  C5  IDS C   3      32.474  90.599  55.5610  0.00  0.00     0.000 C
ATOM     46  O5  IDS C   3      32.183  91.828  56.2300  0.00  0.00     0.000 O
ATOM     47   O  IDS C   3      31.345  91.173  52.8320  0.00  0.00     0.000 O
ATOM     49  HD  IDS C   3      30.610  91.277  53.2770  0.00  0.00     0.000 HD
BRANCH 42 49
ATOM     49   O  IDS C   3      29.350  92.339  55.7010  0.00  0.00     0.000 O
ATOM     50   S  IDS C   3      28.055  93.273  55.5720  0.00  0.00     0.000 S
ATOM     51   O  IDS C   3      27.332  92.688  54.4650  0.00  0.00     0.000 OA
ATOM     52   O  IDS C   3      28.470  94.641  55.3070  0.00  0.00     0.000 OA
ATOM     53   O  IDS C   3      27.351  93.153  56.8310  0.00  0.00     0.000 OA
ENDBRANCH 42 49
BRANCH 45 54
ATOM     54   C  IDS C   3      33.144  89.654  56.5450  0.00  0.00     0.000 C
ATOM     55   O  IDS C   3      33.508  88.567  56.1750  0.00  0.00     0.000 OA
ATOM     56   O  IDS C   3      33.293  89.990  57.7040  0.00  0.00     0.000 OA
ENDBRANCH 45 54
BRANCH 41 57
ATOM     57  O4  SGN C   4      32.528  93.278  54.3370  0.00  0.00     0.000 O
BRANCH 57 61
ATOM     58  C1  SGN C   4      36.292  95.065  53.9330  0.00  0.00     0.000 C
ATOM     59  C2  SGN C   4      36.270  93.590  54.3660  0.00  0.00     0.000 C
ATOM     60  C3  SGN C   4      34.904  92.949  54.0820  0.00  0.00     0.000 C
ATOM     61  C4  SGN C   4      33.809  93.783  54.7250  0.00  0.00     0.000 C
ATOM     62  C5  SGN C   4      33.909  95.240  54.2740  0.00  0.00     0.000 C
ATOM     63  O5  SGN C   4      35.221  95.766  54.5490  0.00  0.00     0.000 O
BRANCH 59 66
ATOM     64   N  SGN C   4      37.452  93.010  53.7210  0.00  0.00     0.000 N
ATOM     66  HD  SGN C   4      36.682  93.118  54.1010  0.00  0.00     0.000 HD
ATOM     66   O  SGN C   4      39.534  91.745  53.7050  0.00  0.00     0.000 OA
ATOM     67   O  SGN C   4      39.039  93.269  55.5690  0.00  0.00     0.000 OA
ATOM     68   S  SGN C   4      38.503  92.166  54.5910  0.00  0.00     0.000 S
ATOM     69   O  SGN C   4      37.788  91.195  55.3380  0.00  0.00     0.000 OA
ENDBRANCH 59 66
BRANCH 62 70
ATOM     70   C  SGN C   4      32.918  96.114  55.0010  0.00  0.00     0.000 C
ATOM     71   S  SGN C   4      32.109  96.808  57.3320  0.00  0.00     0.000 S
ATOM     72   O  SGN C   4      32.108  98.193  56.9030  0.00  0.00     0.000 OA
ATOM     73   O  SGN C   4      30.853  96.130  57.0850  0.00  0.00     0.000 OA
ATOM     74   O  SGN C   4      32.620  96.618  58.6700  0.00  0.00     0.000 OA
ATOM     75   O  SGN C   4      33.188  96.099  56.4080  0.00  0.00     0.000 O
ENDBRANCH 62 70
ENDBRANCH 57 61
ENDBRANCH 41 57
ENDBRANCH 40 44
ENDBRANCH 20 40
ENDBRANCH 19 23
ENDBRANCH 1 19
TORSDOF 14
ENDMDL
MODEL 97
REMARK VINA RESULT:      -0.3    127.588    131.403
ROOT
ATOM      1  C1  IDS C   1      84.636 105.874  72.3950  0.00  0.00     0.000 C
ATOM      2  C2  IDS C   1      85.391 107.081  71.8680  0.00  0.00     0.000 C
ATOM      3  C3  IDS C   1      86.210 107.733  72.9760  0.00  0.00     0.000 C
ATOM      4  C4  IDS C   1      87.076 106.703  73.7010  0.00  0.00     0.000 C
ATOM      5  C5  IDS C   1      86.227 105.482  74.1070  0.00  0.00     0.000 C
ATOM      6  O5  IDS C   1      85.552 104.946  72.9730  0.00  0.00     0.000 O
ATOM      7   O  IDS C   1      85.332 108.384  73.8960  0.00  0.00     0.000 O
ATOM      9  HD  IDS C   1      86.005 108.211  74.4130  0.00  0.00     0.000 HD
ATOM      9   O  IDS C   1      88.131 106.280  72.8230  0.00  0.00     0.000 O
ATOM     11  HD  IDS C   1      88.804 106.106  73.3390  0.00  0.00     0.000 HD
ENDROOT
BRANCH 2 11
ATOM     11   O  IDS C   1      86.329 106.671  70.7990  0.00  0.00     0.000 O
ATOM     12   S  IDS C   1      86.083 107.118  69.2850  0.00  0.00     0.000 S
ATOM     13   O  IDS C   1      87.432 107.293  68.7940  0.00  0.00     0.000 OA
ATOM     14   O  IDS C   1      85.313 108.338  69.2660  0.00  0.00     0.000 OA
ATOM     15   O  IDS C   1      85.394 106.003  68.6850  0.00  0.00     0.000 OA
ENDBRANCH 2 11
BRANCH 5 16
ATOM     16   C  IDS C   1      87.043 104.365  74.7300  0.00  0.00     0.000 C
ATOM     17   O  IDS C   1      86.477 103.349  75.0740  0.00  0.00     0.000 OA
ATOM     18   O  IDS C   1      88.226 104.486  74.8970  0.00  0.00     0.000 OA
ENDBRANCH 5 16
BRANCH 1 19
ATOM     19  O4  SGN C   2      83.496 106.064  73.0660  0.00  0.00     0.000 O
BRANCH 19 23
ATOM     20  C1  SGN C   2      79.744 104.473  73.9700  0.00  0.00     0.000 C
ATOM     21  C2  SGN C   2      80.953 103.785  74.6150  0.00  0.00     0.000 C
ATOM     22  C3  SGN C   2      82.166 104.710  74.5550  0.00  0.00     0.000 C
ATOM     23  C4  SGN C   2      82.439 105.104  73.1080  0.00  0.00     0.000 C
ATOM     24  C5  SGN C   2      81.175 105.705  72.4850  0.00  0.00     0.000 C
ATOM     25  O5  SGN C   2      80.077 104.786  72.6270  0.00  0.00     0.000 O
ATOM     26   O  SGN C   2      83.302 104.081  75.1360  0.00  0.00     0.000 O
ATOM     28  HD  SGN C   2      83.923 103.657  75.5660  0.00  0.00     0.000 HD
BRANCH 21 30
ATOM     28   N  SGN C   2      79.855 103.109  75.3180  0.00  0.00     0.000 N
ATOM     30  HD  SGN C   2      79.689 103.345  76.1350  0.00  0.00     0.000 HD
ATOM     30   S  SGN C   2      80.125 101.839  76.2530  0.00  0.00     0.000 S
ATOM     31   O  SGN C   2      81.127 102.257  77.1740  0.00  0.00     0.000 OA
ATOM     32   O  SGN C   2      78.881 101.359  76.7290  0.00  0.00     0.000 OA
ATOM     33   O  SGN C   2      80.688 100.756  75.2700  0.00  0.00     0.000 OA
ENDBRANCH 21 30
BRANCH 24 34
ATOM     34   C  SGN C   2      81.303 105.991  71.0080  0.00  0.00     0.000 C
ATOM     35   O  SGN C   2      81.454 107.408  70.8170  0.00  0.00     0.000 O
ATOM     36   S  SGN C   2      81.135 107.982  69.3620  0.00  0.00     0.000 S
ATOM     37   O  SGN C   2      79.799 107.505  69.0610  0.00  0.00     0.000 OA
ATOM     38   O  SGN C   2      81.217 109.418  69.4830  0.00  0.00     0.000 OA
ATOM     39   O  SGN C   2      82.163 107.409  68.5280  0.00  0.00     0.000 OA
ENDBRANCH 24 34
BRANCH 20 40
ATOM     40  O4  IDS C   3      79.264 105.561  74.5670  0.00  0.00     0.000 O
BRANCH 40 44
ATOM     41  C1  IDS C   3      77.643 107.892  76.6570  0.00  0.00     0.000 C
ATOM     42  C2  IDS C   3      77.678 106.405  76.9970  0.00  0.00     0.000 C
ATOM     43  C3  IDS C   3      77.194 105.577  75.8090  0.00  0.00     0.000 C
ATOM     44  C4  IDS C   3      77.897 105.976  74.5210  0.00  0.00     0.000 C
ATOM     45  C5  IDS C   3      77.823 107.506  74.3350  0.00  0.00     0.000 C
ATOM     46  O5  IDS C   3      78.394 108.153  75.4740  0.00  0.00     0.000 O
ATOM     47   O  IDS C   3      75.785 105.737  75.6630  0.00  0.00     0.000 O
ATOM     49  HD  IDS C   3      76.484 105.412  76.0580  0.00  0.00     0.000 HD
BRANCH 42 49
ATOM     49   O  IDS C   3      79.061 105.991  77.3310  0.00  0.00     0.000 O
ATOM     50   S  IDS C   3      79.379 105.381  78.7770  0.00  0.00     0.000 S
ATOM     51   O  IDS C   3      78.767 104.071  78.7290  0.00  0.00     0.000 OA
ATOM     52   O  IDS C   3      78.795 106.233  79.8000  0.00  0.00     0.000 OA
ATOM     53   O  IDS C   3      80.822 105.324  78.8760  0.00  0.00     0.000 OA
ENDBRANCH 42 49
BRANCH 45 54
ATOM     54   C  IDS C   3      78.539 107.997  73.0860  0.00  0.00     0.000 C
ATOM     55   O  IDS C   3      78.188 107.602  72.0040  0.00  0.00     0.000 OA
ATOM     56   O  IDS C   3      79.472 108.770  73.1850  0.00  0.00     0.000 OA
ENDBRANCH 45 54
BRANCH 41 57
ATOM     57  O4  SGN C   4      76.371 108.290  76.7730  0.00  0.00     0.000 O
BRANCH 57 61
ATOM     58  C1  SGN C   4      74.186 111.856  76.5720  0.00  0.00     0.000 C
ATOM     59  C2  SGN C   4      74.767 111.326  75.2510  0.00  0.00     0.000 C
ATOM     60  C3  SGN C   4      75.173 109.851  75.3760  0.00  0.00     0.000 C
ATOM     61  C4  SGN C   4      76.111 109.681  76.5600  0.00  0.00     0.000 C
ATOM     62  C5  SGN C   4      75.482 110.255  77.8290  0.00  0.00     0.000 C
ATOM     63  O5  SGN C   4      75.105 111.631  77.6300  0.00  0.00     0.000 O
BRANCH 59 66
ATOM     64   N  SGN C   4      73.758 111.681  74.2480  0.00  0.00     0.000 N
ATOM     66  HD  SGN C   4      74.414 111.304  74.6700  0.00  0.00     0.000 HD
ATOM     66   O  SGN C   4      73.017 112.674  72.1500  0.00  0.00     0.000 OA
ATOM     67   O  SGN C   4      74.708 113.818  73.5190  0.00  0.00     0.000 OA
ATOM     68   S  SGN C   4      74.198 112.463  72.9170  0.00  0.00     0.000 S
ATOM     69   O  SGN C   4      75.293 111.776  72.3350  0.00  0.00     0.000 OA
ENDBRANCH 59 66
BRANCH 62 70
ATOM     70   C  SGN C   4      76.445 110.221  78.9890  0.00  0.00     0.000 C
ATOM     71   S  SGN C   4      78.794 110.927  79.7340  0.00  0.00     0.000 S
ATOM     72   O  SGN C   4      78.239 111.402  80.9860  0.00  0.00     0.000 OA
ATOM     73   O  SGN C   4      79.188 109.533  79.7720  0.00  0.00     0.000 OA
ATOM     74   O  SGN C   4      79.802 111.802  79.1800  0.00  0.00     0.000 OA
ATOM     75   O  SGN C   4      77.596 111.023  78.6970  0.00  0.00     0.000 O
ENDBRANCH 62 70
ENDBRANCH 57 61
ENDBRANCH 41 57
ENDBRANCH 40 44
ENDBRANCH 20 40
ENDBRANCH 19 23
ENDBRANCH 1 19
TORSDOF 14
ENDMDL
MODEL 98
REMARK VINA RESULT:      -0.3     95.765    102.700
ROOT
ATOM      1  C1  IDS C   1      30.206 106.021  61.0890  0.00  0.00     0.000 C
ATOM      2  C2  IDS C   1      30.757 105.897  59.6800  0.00  0.00     0.000 C
ATOM      3  C3  IDS C   1      29.637 105.994  58.6510  0.00  0.00     0.000 C
ATOM      4  C4  IDS C   1      28.771 107.230  58.8910  0.00  0.00     0.000 C
ATOM      5  C5  IDS C   1      28.347 107.304  60.3720  0.00  0.00     0.000 C
ATOM      6  O5  IDS C   1      29.488 107.247  61.2210  0.00  0.00     0.000 O
ATOM      7   O  IDS C   1      28.842 104.808  58.7000  0.00  0.00     0.000 O
ATOM      9  HD  IDS C   1      28.261 105.378  58.4040  0.00  0.00     0.000 HD
ATOM      9   O  IDS C   1      29.527 108.403  58.5540  0.00  0.00     0.000 O
ATOM     11  HD  IDS C   1      28.946 108.973  58.2570  0.00  0.00     0.000 HD
ENDROOT
BRANCH 2 11
ATOM     11   O  IDS C   1      31.713 106.994  59.4070  0.00  0.00     0.000 O
ATOM     12   S  IDS C   1      33.272 106.688  59.2270  0.00  0.00     0.000 S
ATOM     13   O  IDS C   1      33.664 107.667  58.2370  0.00  0.00     0.000 OA
ATOM     14   O  IDS C   1      33.443 105.329  58.7740  0.00  0.00     0.000 OA
ATOM     15   O  IDS C   1      33.841 106.929  60.5300  0.00  0.00     0.000 OA
ENDBRANCH 2 11
BRANCH 5 16
ATOM     16   C  IDS C   1      27.578 108.567  60.7130  0.00  0.00     0.000 C
ATOM     17   O  IDS C   1      27.207 108.735  61.8560  0.00  0.00     0.000 OA
ATOM     18   O  IDS C   1      27.325 109.381  59.8680  0.00  0.00     0.000 OA
ENDBRANCH 5 16
BRANCH 1 19
ATOM     19  O4  SGN C   2      29.646 104.952  61.6630  0.00  0.00     0.000 O
BRANCH 19 23
ATOM     20  C1  SGN C   2      28.933 102.976  65.2700  0.00  0.00     0.000 C
ATOM     21  C2  SGN C   2      28.143 104.268  65.0290  0.00  0.00     0.000 C
ATOM     22  C3  SGN C   2      28.173 104.622  63.5450  0.00  0.00     0.000 C
ATOM     23  C4  SGN C   2      29.619 104.741  63.0760  0.00  0.00     0.000 C
ATOM     24  C5  SGN C   2      30.384 103.460  63.4180  0.00  0.00     0.000 C
ATOM     25  O5  SGN C   2      30.264 103.181  64.8250  0.00  0.00     0.000 O
ATOM     26   O  SGN C   2      27.457 105.828  63.3050  0.00  0.00     0.000 O
ATOM     28  HD  SGN C   2      26.948 106.525  63.2360  0.00  0.00     0.000 HD
BRANCH 21 30
ATOM     28   N  SGN C   2      27.483 103.774  66.2450  0.00  0.00     0.000 N
ATOM     30  HD  SGN C   2      26.702 103.409  66.1640  0.00  0.00     0.000 HD
ATOM     30   S  SGN C   2      26.439 104.680  67.0490  0.00  0.00     0.000 S
ATOM     31   O  SGN C   2      25.472 105.086  66.0850  0.00  0.00     0.000 OA
ATOM     32   O  SGN C   2      26.030 103.976  68.2070  0.00  0.00     0.000 OA
ATOM     33   O  SGN C   2      27.290 105.903  67.5330  0.00  0.00     0.000 OA
ENDBRANCH 21 30
BRANCH 24 34
ATOM     34   C  SGN C   2      31.864 103.540  63.1240  0.00  0.00     0.000 C
ATOM     35   O  SGN C   2      32.146 102.782  61.9350  0.00  0.00     0.000 O
ATOM     36   S  SGN C   2      33.660 102.334  61.7020  0.00  0.00     0.000 S
ATOM     37   O  SGN C   2      34.032 101.643  62.9210  0.00  0.00     0.000 OA
ATOM     38   O  SGN C   2      33.639 101.479  60.5410  0.00  0.00     0.000 OA
ATOM     39   O  SGN C   2      34.363 103.577  61.4970  0.00  0.00     0.000 OA
ENDBRANCH 24 34
BRANCH 20 40
ATOM     40  O4  IDS C   3      28.459 101.855  64.7310  0.00  0.00     0.000 O
BRANCH 40 44
ATOM     41  C1  IDS C   3      26.686  98.910  63.9490  0.00  0.00     0.000 C
ATOM     42  C2  IDS C   3      26.235  99.839  65.0730  0.00  0.00     0.000 C
ATOM     43  C3  IDS C   3      27.394 100.119  66.0270  0.00  0.00     0.000 C
ATOM     44  C4  IDS C   3      28.647 100.548  65.2800  0.00  0.00     0.000 C
ATOM     45  C5  IDS C   3      28.951  99.547  64.1460  0.00  0.00     0.000 C
ATOM     46  O5  IDS C   3      27.820  99.452  63.2770  0.00  0.00     0.000 O
ATOM     47   O  IDS C   3      27.664  98.952  66.7990  0.00  0.00     0.000 O
ATOM     49  HD  IDS C   3      27.191  99.650  66.6040  0.00  0.00     0.000 HD
BRANCH 42 49
ATOM     49   O  IDS C   3      25.761 101.125  64.5120  0.00  0.00     0.000 O
ATOM     50   S  IDS C   3      24.252 101.596  64.7730  0.00  0.00     0.000 S
ATOM     51   O  IDS C   3      24.252 101.958  66.1730  0.00  0.00     0.000 OA
ATOM     52   O  IDS C   3      23.345 100.498  64.4800  0.00  0.00     0.000 OA
ATOM     53   O  IDS C   3      24.032 102.729  63.8990  0.00  0.00     0.000 OA
ENDBRANCH 42 49
BRANCH 45 54
ATOM     54   C  IDS C   3      30.171  99.924  63.3200  0.00  0.00     0.000 C
ATOM     55   O  IDS C   3      31.246 100.022  63.8540  0.00  0.00     0.000 OA
ATOM     56   O  IDS C   3      30.054 100.141  62.1300  0.00  0.00     0.000 OA
ENDBRANCH 45 54
BRANCH 41 57
ATOM     57  O4  SGN C   4      26.703  97.669  64.4490  0.00  0.00     0.000 O
BRANCH 57 61
ATOM     58  C1  SGN C   4      27.344  93.763  63.0850  0.00  0.00     0.000 C
ATOM     59  C2  SGN C   4      28.570  94.689  63.1300  0.00  0.00     0.000 C
ATOM     60  C3  SGN C   4      28.304  95.918  64.0110  0.00  0.00     0.000 C
ATOM     61  C4  SGN C   4      27.038  96.615  63.5410  0.00  0.00     0.000 C
ATOM     62  C5  SGN C   4      25.871  95.631  63.4920  0.00  0.00     0.000 C
ATOM     63  O5  SGN C   4      26.200  94.494  62.6700  0.00  0.00     0.000 O
BRANCH 59 66
ATOM     64   N  SGN C   4      29.676  93.801  63.5010  0.00  0.00     0.000 N
ATOM     66  HD  SGN C   4      29.175  94.495  63.3740  0.00  0.00     0.000 HD
ATOM     66   O  SGN C   4      31.895  92.836  63.2140  0.00  0.00     0.000 OA
ATOM     67   O  SGN C   4      30.479  93.262  61.2500  0.00  0.00     0.000 OA
ATOM     68   S  SGN C   4      31.020  93.791  62.6240  0.00  0.00     0.000 S
ATOM     69   O  SGN C   4      31.458  95.131  62.4620  0.00  0.00     0.000 OA
ENDBRANCH 59 66
BRANCH 62 70
ATOM     70   C  SGN C   4      24.636  96.264  62.9010  0.00  0.00     0.000 C
ATOM     71   S  SGN C   4      23.753  97.537  60.8590  0.00  0.00     0.000 S
ATOM     72   O  SGN C   4      22.589  96.674  60.8420  0.00  0.00     0.000 OA
ATOM     73   O  SGN C   4      23.582  98.716  61.6830  0.00  0.00     0.000 OA
ATOM     74   O  SGN C   4      24.284  97.817  59.5450  0.00  0.00     0.000 OA
ATOM     75   O  SGN C   4      24.890  96.671  61.5510  0.00  0.00     0.000 O
ENDBRANCH 62 70
ENDBRANCH 57 61
ENDBRANCH 41 57
ENDBRANCH 40 44
ENDBRANCH 20 40
ENDBRANCH 19 23
ENDBRANCH 1 19
TORSDOF 14
ENDMDL
MODEL 99
REMARK VINA RESULT:       0.2      3.895     10.094
ROOT
ATOM      1  C1  IDS C   1       9.631  10.642  18.7190  0.00  0.00     0.000 C
ATOM      2  C2  IDS C   1       9.769  10.925  17.2330  0.00  0.00     0.000 C
ATOM      3  C3  IDS C   1       8.682  11.883  16.7630  0.00  0.00     0.000 C
ATOM      4  C4  IDS C   1       8.623  13.128  17.6480  0.00  0.00     0.000 C
ATOM      5  C5  IDS C   1       8.581  12.724  19.1350  0.00  0.00     0.000 C
ATOM      6  O5  IDS C   1       9.673  11.866  19.4500  0.00  0.00     0.000 O
ATOM      7   O  IDS C   1       7.422  11.211  16.7610  0.00  0.00     0.000 O
ATOM      9  HD  IDS C   1       7.166  12.030  16.8750  0.00  0.00     0.000 HD
ATOM      9   O  IDS C   1       9.790  13.929  17.4050  0.00  0.00     0.000 O
ATOM     11  HD  IDS C   1       9.534  14.748  17.5190  0.00  0.00     0.000 HD
ENDROOT
BRANCH 2 11
ATOM     11   O  IDS C   1      11.078  11.556  16.9530  0.00  0.00     0.000 O
ATOM     12   S  IDS C   1      12.429  10.709  17.0590  0.00  0.00     0.000 S
ATOM     13   O  IDS C   1      13.237  11.288  16.0090  0.00  0.00     0.000 OA
ATOM     14   O  IDS C   1      12.137   9.313  16.8410  0.00  0.00     0.000 OA
ATOM     15   O  IDS C   1      12.927  10.985  18.3840  0.00  0.00     0.000 OA
ENDBRANCH 2 11
BRANCH 5 16
ATOM     16   C  IDS C   1       8.637  13.910  20.0810  0.00  0.00     0.000 C
ATOM     17   O  IDS C   1       9.705  14.449  20.2790  0.00  0.00     0.000 OA
ATOM     18   O  IDS C   1       7.648  14.301  20.6370  0.00  0.00     0.000 OA
ENDBRANCH 5 16
BRANCH 1 19
ATOM     19  O4  SGN C   2       8.726   9.748  19.1280  0.00  0.00     0.000 O
BRANCH 19 23
ATOM     20  C1  SGN C   2      10.551   7.939  22.4180  0.00  0.00     0.000 C
ATOM     21  C2  SGN C   2      10.769   7.266  21.0580  0.00  0.00     0.000 C
ATOM     22  C3  SGN C   2      10.431   8.245  19.9370  0.00  0.00     0.000 C
ATOM     23  C4  SGN C   2       9.000   8.742  20.1050  0.00  0.00     0.000 C
ATOM     24  C5  SGN C   2       8.813   9.325  21.5080  0.00  0.00     0.000 C
ATOM     25  O5  SGN C   2       9.196   8.351  22.4960  0.00  0.00     0.000 O
ATOM     26   O  SGN C   2      10.613   7.631  18.6670  0.00  0.00     0.000 O
ATOM     28  HD  SGN C   2      10.814   7.207  17.9390  0.00  0.00     0.000 HD
BRANCH 21 30
ATOM     28   N  SGN C   2      11.641   6.450  21.9140  0.00  0.00     0.000 N
ATOM     30  HD  SGN C   2      12.486   6.637  21.9290  0.00  0.00     0.000 HD
ATOM     30   S  SGN C   2      12.427   5.185  21.3300  0.00  0.00     0.000 S
ATOM     31   O  SGN C   2      13.148   5.676  20.2050  0.00  0.00     0.000 OA
ATOM     32   O  SGN C   2      13.119   4.556  22.3940  0.00  0.00     0.000 OA
ATOM     33   O  SGN C   2      11.291   4.205  20.8800  0.00  0.00     0.000 OA
ENDBRANCH 21 30
BRANCH 24 34
ATOM     34   C  SGN C   2       7.386   9.709  21.8200  0.00  0.00     0.000 C
ATOM     35   O  SGN C   2       7.351  11.090  22.2240  0.00  0.00     0.000 O
ATOM     36   S  SGN C   2       6.067  11.575  23.0390  0.00  0.00     0.000 S
ATOM     37   O  SGN C   2       5.966  10.652  24.1520  0.00  0.00     0.000 OA
ATOM     38   O  SGN C   2       6.351  12.931  23.4410  0.00  0.00     0.000 OA
ATOM     39   O  SGN C   2       4.988  11.464  22.0880  0.00  0.00     0.000 OA
ENDBRANCH 24 34
BRANCH 20 40
ATOM     40  O4  IDS C   3      11.339   8.965  22.7300  0.00  0.00     0.000 O
BRANCH 40 44
ATOM     41  C1  IDS C   3      13.987  10.454  24.5190  0.00  0.00     0.000 C
ATOM     42  C2  IDS C   3      13.540   9.023  24.8000  0.00  0.00     0.000 C
ATOM     43  C3  IDS C   3      12.033   8.975  25.0420  0.00  0.00     0.000 C
ATOM     44  C4  IDS C   3      11.264   9.704  23.9520  0.00  0.00     0.000 C
ATOM     45  C5  IDS C   3      11.856  11.114  23.7450  0.00  0.00     0.000 C
ATOM     46  O5  IDS C   3      13.247  11.005  23.4330  0.00  0.00     0.000 O
ATOM     47   O  IDS C   3      11.739   9.552  26.3120  0.00  0.00     0.000 O
ATOM     49  HD  IDS C   3      12.037   8.912  25.8100  0.00  0.00     0.000 HD
BRANCH 42 49
ATOM     49   O  IDS C   3      13.862   8.152  23.6450  0.00  0.00     0.000 O
ATOM     50   S  IDS C   3      15.192   7.260  23.6710  0.00  0.00     0.000 S
ATOM     51   O  IDS C   3      14.885   6.231  24.6390  0.00  0.00     0.000 OA
ATOM     52   O  IDS C   3      16.319   8.086  24.0730  0.00  0.00     0.000 OA
ATOM     53   O  IDS C   3      15.349   6.742  22.3280  0.00  0.00     0.000 OA
ENDBRANCH 42 49
BRANCH 45 54
ATOM     54   C  IDS C   3      11.168  11.900  22.6400  0.00  0.00     0.000 C
ATOM     55   O  IDS C   3      11.728  12.065  21.5870  0.00  0.00     0.000 OA
ATOM     56   O  IDS C   3      10.064  12.373  22.8290  0.00  0.00     0.000 OA
ENDBRANCH 45 54
BRANCH 41 57
ATOM     57  O4  SGN C   4      14.059  11.081  25.6990  0.00  0.00     0.000 O
BRANCH 57 61
ATOM     58  C1  SGN C   4      15.822  14.538  27.2720  0.00  0.00     0.000 C
ATOM     59  C2  SGN C   4      15.013  14.703  25.9750  0.00  0.00     0.000 C
ATOM     60  C3  SGN C   4      14.099  13.493  25.7340  0.00  0.00     0.000 C
ATOM     61  C4  SGN C   4      14.925  12.218  25.7710  0.00  0.00     0.000 C
ATOM     62  C5  SGN C   4      15.723  12.135  27.0710  0.00  0.00     0.000 C
ATOM     63  O5  SGN C   4      16.537  13.311  27.2430  0.00  0.00     0.000 O
BRANCH 59 66
ATOM     64   N  SGN C   4      14.486  15.920  25.3490  0.00  0.00     0.000 N
ATOM     66  HD  SGN C   4      15.009  15.322  25.6930  0.00  0.00     0.000 HD
ATOM     66   O  SGN C   4      13.840  18.268  25.3390  0.00  0.00     0.000 OA
ATOM     67   O  SGN C   4      13.351  16.870  27.3000  0.00  0.00     0.000 OA
ATOM     68   S  SGN C   4      14.390  17.277  26.1990  0.00  0.00     0.000 S
ATOM     69   O  SGN C   4      15.647  17.509  26.8140  0.00  0.00     0.000 OA
ENDBRANCH 59 66
BRANCH 62 70
ATOM     70   C  SGN C   4      16.652  10.947  27.0760  0.00  0.00     0.000 C
ATOM     71   S  SGN C   4      18.914  10.107  27.9430  0.00  0.00     0.000 S
ATOM     72   O  SGN C   4      18.286   8.859  28.3300  0.00  0.00     0.000 OA
ATOM     73   O  SGN C   4      19.418  10.099  26.5840  0.00  0.00     0.000 OA
ATOM     74   O  SGN C   4      19.863  10.602  28.9130  0.00  0.00     0.000 OA
ATOM     75   O  SGN C   4      17.742  11.178  27.9770  0.00  0.00     0.000 O
ENDBRANCH 62 70
ENDBRANCH 57 61
ENDBRANCH 41 57
ENDBRANCH 40 44
ENDBRANCH 20 40
ENDBRANCH 19 23
ENDBRANCH 1 19
TORSDOF 14
ENDMDL
MODEL 100
REMARK VINA RESULT:       0.5      3.672     10.228
ROOT
ATOM      1  C1  IDS C   1      10.669  11.377  19.8250  0.00  0.00     0.000 C
ATOM      2  C2  IDS C   1      11.282  11.926  18.5490  0.00  0.00     0.000 C
ATOM      3  C3  IDS C   1      10.199  12.407  17.5910  0.00  0.00     0.000 C
ATOM      4  C4  IDS C   1       9.224  13.354  18.2910  0.00  0.00     0.000 C
ATOM      5  C5  IDS C   1       8.739  12.735  19.6170  0.00  0.00     0.000 C
ATOM      6  O5  IDS C   1       9.848  12.373  20.4330  0.00  0.00     0.000 O
ATOM      7   O  IDS C   1       9.503  11.280  17.0550  0.00  0.00     0.000 O
ATOM      9  HD  IDS C   1       8.889  11.887  17.0010  0.00  0.00     0.000 HD
ATOM      9   O  IDS C   1       9.892  14.596  18.5610  0.00  0.00     0.000 O
ATOM     11  HD  IDS C   1       9.278  15.204  18.5060  0.00  0.00     0.000 HD
ENDROOT
BRANCH 2 11
ATOM     11   O  IDS C   1      12.154  13.082  18.8580  0.00  0.00     0.000 O
ATOM     12   S  IDS C   1      13.623  12.859  19.4460  0.00  0.00     0.000 S
ATOM     13   O  IDS C   1      14.362  13.948  18.8460  0.00  0.00     0.000 OA
ATOM     14   O  IDS C   1      14.107  11.560  19.0440  0.00  0.00     0.000 OA
ATOM     15   O  IDS C   1      13.466  12.989  20.8730  0.00  0.00     0.000 OA
ENDBRANCH 2 11
BRANCH 5 16
ATOM     16   C  IDS C   1       7.855  13.668  20.4260  0.00  0.00     0.000 C
ATOM     17   O  IDS C   1       8.379  14.512  21.1220  0.00  0.00     0.000 OA
ATOM     18   O  IDS C   1       6.660  13.566  20.3930  0.00  0.00     0.000 OA
ENDBRANCH 5 16
BRANCH 1 19
ATOM     19  O4  SGN C   2      10.178  10.134  19.8260  0.00  0.00     0.000 O
BRANCH 19 23
ATOM     20  C1  SGN C   2      11.270   8.746  23.6080  0.00  0.00     0.000 C
ATOM     21  C2  SGN C   2      12.147   8.295  22.4340  0.00  0.00     0.000 C
ATOM     22  C3  SGN C   2      11.903   9.202  21.2310  0.00  0.00     0.000 C
ATOM     23  C4  SGN C   2      10.422   9.193  20.8730  0.00  0.00     0.000 C
ATOM     24  C5  SGN C   2       9.588   9.565  22.1020  0.00  0.00     0.000 C
ATOM     25  O5  SGN C   2       9.914   8.689  23.1960  0.00  0.00     0.000 O
ATOM     26   O  SGN C   2      12.698   8.788  20.1250  0.00  0.00     0.000 O
ATOM     28  HD  SGN C   2      13.262   8.514  19.5280  0.00  0.00     0.000 HD
BRANCH 21 30
ATOM     28   N  SGN C   2      12.979   7.851  23.5600  0.00  0.00     0.000 N
ATOM     30  HD  SGN C   2      13.709   8.288  23.7220  0.00  0.00     0.000 HD
ATOM     30   S  SGN C   2      14.205   6.847  23.3400  0.00  0.00     0.000 S
ATOM     31   O  SGN C   2      15.008   7.449  22.3300  0.00  0.00     0.000 OA
ATOM     32   O  SGN C   2      14.768   6.541  24.6020  0.00  0.00     0.000 OA
ATOM     33   O  SGN C   2      13.531   5.535  22.8090  0.00  0.00     0.000 OA
ENDBRANCH 21 30
BRANCH 24 34
ATOM     34   C  SGN C   2       8.098   9.440  21.8850  0.00  0.00     0.000 C
ATOM     35   O  SGN C   2       7.692   8.097  22.1980  0.00  0.00     0.000 O
ATOM     36   S  SGN C   2       6.293   7.606  21.6050  0.00  0.00     0.000 S
ATOM     37   O  SGN C   2       6.388   7.856  20.1800  0.00  0.00     0.000 OA
ATOM     38   O  SGN C   2       6.200   6.204  21.9360  0.00  0.00     0.000 OA
ATOM     39   O  SGN C   2       5.320   8.429  22.2810  0.00  0.00     0.000 OA
ENDBRANCH 24 34
BRANCH 20 40
ATOM     40  O4  IDS C   3      11.517   9.942  24.1370  0.00  0.00     0.000 O
BRANCH 40 44
ATOM     41  C1  IDS C   3      13.070  12.314  26.2320  0.00  0.00     0.000 C
ATOM     42  C2  IDS C   3      13.443  10.835  26.2870  0.00  0.00     0.000 C
ATOM     43  C3  IDS C   3      12.192   9.977  26.4550  0.00  0.00     0.000 C
ATOM     44  C4  IDS C   3      11.115  10.349  25.4470  0.00  0.00     0.000 C
ATOM     45  C5  IDS C   3      10.880  11.874  25.4690  0.00  0.00     0.000 C
ATOM     46  O5  IDS C   3      12.111  12.550  25.2050  0.00  0.00     0.000 O
ATOM     47   O  IDS C   3      11.689  10.127  27.7800  0.00  0.00     0.000 O
ATOM     49  HD  IDS C   3      12.257   9.815  27.2050  0.00  0.00     0.000 HD
BRANCH 42 49
ATOM     49   O  IDS C   3      14.127  10.436  25.0350  0.00  0.00     0.000 O
ATOM     50   S  IDS C   3      15.728  10.458  24.9640  0.00  0.00     0.000 S
ATOM     51   O  IDS C   3      16.115   9.336  25.7890  0.00  0.00     0.000 OA
ATOM     52   O  IDS C   3      16.217  11.726  25.4810  0.00  0.00     0.000 OA
ATOM     53   O  IDS C   3      16.066  10.274  23.5680  0.00  0.00     0.000 OA
ENDBRANCH 42 49
BRANCH 45 54
ATOM     54   C  IDS C   3       9.842  12.338  24.4580  0.00  0.00     0.000 C
ATOM     55   O  IDS C   3       8.740  11.854  24.4710  0.00  0.00     0.000 OA
ATOM     56   O  IDS C   3      10.134  13.180  23.6320  0.00  0.00     0.000 OA
ENDBRANCH 45 54
BRANCH 41 57
ATOM     57  O4  SGN C   4      12.850  12.709  27.4920  0.00  0.00     0.000 O
BRANCH 57 61
ATOM     58  C1  SGN C   4      12.961  16.254  29.7160  0.00  0.00     0.000 C
ATOM     59  C2  SGN C   4      12.013  16.227  28.5060  0.00  0.00     0.000 C
ATOM     60  C3  SGN C   4      11.754  14.788  28.0380  0.00  0.00     0.000 C
ATOM     61  C4  SGN C   4      13.080  14.091  27.7810  0.00  0.00     0.000 C
ATOM     62  C5  SGN C   4      13.980  14.183  29.0120  0.00  0.00     0.000 C
ATOM     63  O5  SGN C   4      14.159  15.556  29.4090  0.00  0.00     0.000 O
BRANCH 59 66
ATOM     64   N  SGN C   4      11.047  17.225  28.9760  0.00  0.00     0.000 N
ATOM     66  HD  SGN C   4      11.416  16.496  28.6890  0.00  0.00     0.000 HD
ATOM     66   O  SGN C   4       9.230  18.820  28.6740  0.00  0.00     0.000 OA
ATOM     67   O  SGN C   4      11.016  18.662  26.9920  0.00  0.00     0.000 OA
ATOM     68   S  SGN C   4      10.026  17.897  27.9370  0.00  0.00     0.000 S
ATOM     69   O  SGN C   4       9.391  16.864  27.2010  0.00  0.00     0.000 OA
ENDBRANCH 59 66
BRANCH 62 70
ATOM     70   C  SGN C   4      15.351  13.617  28.7390  0.00  0.00     0.000 C
ATOM     71   S  SGN C   4      17.236  12.210  29.7590  0.00  0.00     0.000 S
ATOM     72   O  SGN C   4      17.342  11.476  28.5140  0.00  0.00     0.000 OA
ATOM     73   O  SGN C   4      18.077  13.390  29.8030  0.00  0.00     0.000 OA
ATOM     74   O  SGN C   4      17.342  11.375  30.9330  0.00  0.00     0.000 OA
ATOM     75   O  SGN C   4      15.736  12.730  29.7960  0.00  0.00     0.000 O
ENDBRANCH 62 70
ENDBRANCH 57 61
ENDBRANCH 41 57
ENDBRANCH 40 44
ENDBRANCH 20 40
ENDBRANCH 19 23
ENDBRANCH 1 19
TORSDOF 14
ENDMDL
