MODEL 1
REMARK VINA RESULT:      -8.5      0.000      0.000
ROOT
ATOM      1  C1  NGY C   1      15.580  30.032  20.2610  0.00  0.00     0.000 C
ATOM      2  C2  NGY C   1      15.681  31.512  19.9200  0.00  0.00     0.000 C
ATOM      3  C3  NGY C   1      14.532  32.282  20.5640  0.00  0.00     0.000 C
ATOM      4  C4  NGY C   1      13.228  31.637  20.1350  0.00  0.00     0.000 C
ATOM      5  C5  NGY C   1      13.221  30.186  20.6080  0.00  0.00     0.000 C
ATOM      6  O5  NGY C   1      14.313  29.489  19.9530  0.00  0.00     0.000 O
ATOM      7   O  NGY C   1      14.607  33.645  20.1730  0.00  0.00     0.000 O
ATOM      9  HD  NGY C   1      14.826  34.094  19.4650  0.00  0.00     0.000 HD
ATOM      9   O  NGY C   1      12.114  32.332  20.6780  0.00  0.00     0.000 O
ATOM     11  HD  NGY C   1      12.334  32.781  19.9700  0.00  0.00     0.000 HD
ENDROOT
BRANCH 2 13
ATOM     11   N  NGY C   1      16.542  32.352  19.1210  0.00  0.00     0.000 N
ATOM     13  HD  NGY C   1      17.202  32.434  19.6760  0.00  0.00     0.000 HD
ATOM     13   C  NGY C   1      17.726  32.766  19.5700  0.00  0.00     0.000 C
ATOM     14   O  NGY C   1      18.069  32.568  20.7370  0.00  0.00     0.000 OA
ATOM     15   C  NGY C   1      18.618  33.453  18.5810  0.00  0.00     0.000 C
ENDBRANCH 2 13
BRANCH 5 16
ATOM     16   C  NGY C   1      11.987  29.413  20.2670  0.00  0.00     0.000 C
ATOM     17   O  NGY C   1      11.834  25.749  20.1370  0.00  0.00     0.000 OA
ATOM     18   O  NGY C   1      12.339  28.036  20.0990  0.00  0.00     0.000 O
ATOM     19   S  NGY C   1      11.147  27.015  20.1830  0.00  0.00     0.000 S
ATOM     20   O  NGY C   1      10.320  27.232  19.0250  0.00  0.00     0.000 OA
ATOM     21   O  NGY C   1      10.484  27.329  21.4370  0.00  0.00     0.000 OA
ENDBRANCH 5 16
BRANCH 1 22
ATOM     22  O4  BDP C   2      15.917  29.860  21.5560  0.00  0.00     0.000 O
BRANCH 22 26
ATOM     23  C1  BDP C   2      17.508  27.601  24.6110  0.00  0.00     0.000 C
ATOM     24  C2  BDP C   2      18.447  27.899  23.4660  0.00  0.00     0.000 C
ATOM     25  C3  BDP C   2      17.878  29.008  22.6210  0.00  0.00     0.000 C
ATOM     26  C4  BDP C   2      16.453  28.671  22.1960  0.00  0.00     0.000 C
ATOM     27  C5  BDP C   2      15.647  28.217  23.4050  0.00  0.00     0.000 C
ATOM     28  O5  BDP C   2      16.250  27.089  24.0890  0.00  0.00     0.000 O
ATOM     29   O  BDP C   2      19.699  28.422  23.9100  0.00  0.00     0.000 O
ATOM     31  HD  BDP C   2      20.068  29.023  23.4080  0.00  0.00     0.000 HD
ATOM     31   O  BDP C   2      18.715  29.127  21.4770  0.00  0.00     0.000 O
ATOM     33  HD  BDP C   2      19.084  29.728  20.9740  0.00  0.00     0.000 HD
BRANCH 27 33
ATOM     33   C  BDP C   2      14.251  27.775  23.0360  0.00  0.00     0.000 C
ATOM     34   O  BDP C   2      13.231  28.389  23.4310  0.00  0.00     0.000 OA
ATOM     35   O  BDP C   2      14.122  26.767  22.3600  0.00  0.00     0.000 OA
ENDBRANCH 27 33
BRANCH 23 36
ATOM     36  O4  SGN C   3      17.967  26.709  25.5200  0.00  0.00     0.000 O
BRANCH 36 40
ATOM     37  C1  SGN C   3      17.524  25.317  29.4310  0.00  0.00     0.000 C
ATOM     38  C2  SGN C   3      16.247  25.636  28.6370  0.00  0.00     0.000 C
ATOM     39  C3  SGN C   3      16.548  25.699  27.1470  0.00  0.00     0.000 C
ATOM     40  C4  SGN C   3      17.643  26.718  26.9120  0.00  0.00     0.000 C
ATOM     41  C5  SGN C   3      18.847  26.341  27.7460  0.00  0.00     0.000 C
ATOM     42  O5  SGN C   3      18.487  26.318  29.1360  0.00  0.00     0.000 O
ATOM     43   O  SGN C   3      15.364  26.053  26.4440  0.00  0.00     0.000 O
ATOM     45  HD  SGN C   3      16.059  26.313  25.9980  0.00  0.00     0.000 HD
BRANCH 38 47
ATOM     45   N  SGN C   3      15.638  25.837  29.9640  0.00  0.00     0.000 N
ATOM     47  HD  SGN C   3      16.150  26.137  29.3330  0.00  0.00     0.000 HD
ATOM     47   S  SGN C   3      14.453  24.815  30.2390  0.00  0.00     0.000 S
ATOM     48   O  SGN C   3      13.355  25.048  29.3680  0.00  0.00     0.000 OA
ATOM     49   O  SGN C   3      15.026  23.508  30.2110  0.00  0.00     0.000 OA
ATOM     50   O  SGN C   3      14.040  25.194  31.5890  0.00  0.00     0.000 OA
ENDBRANCH 38 47
BRANCH 41 51
ATOM     51   C  SGN C   3      20.015  27.277  27.6000  0.00  0.00     0.000 C
ATOM     52   O  SGN C   3      23.044  26.791  25.4860  0.00  0.00     0.000 OA
ATOM     53   O  SGN C   3      21.881  28.809  26.0400  0.00  0.00     0.000 OA
ATOM     54   O  SGN C   3      22.984  27.531  27.7480  0.00  0.00     0.000 OA
ATOM     55   O  SGN C   3      20.920  26.734  26.6640  0.00  0.00     0.000 O
ATOM     56   S  SGN C   3      22.340  27.543  26.4680  0.00  0.00     0.000 S
ENDBRANCH 41 51
BRANCH 37 57
ATOM     57  O4  IDS C   4      18.073  24.108  29.1580  0.00  0.00     0.000 O
BRANCH 57 61
ATOM     58  C1  IDS C   4      20.388  21.332  30.3450  0.00  0.00     0.000 C
ATOM     59  C2  IDS C   4      19.676  22.161  31.3670  0.00  0.00     0.000 C
ATOM     60  C3  IDS C   4      19.620  23.644  30.9930  0.00  0.00     0.000 C
ATOM     61  C4  IDS C   4      19.462  23.967  29.5130  0.00  0.00     0.000 C
ATOM     62  C5  IDS C   4      20.143  22.900  28.6480  0.00  0.00     0.000 C
ATOM     63  O5  IDS C   4      19.813  21.586  29.0740  0.00  0.00     0.000 O
ATOM     64   O  IDS C   4      20.849  24.187  31.4380  0.00  0.00     0.000 O
ATOM     66  HD  IDS C   4      21.334  24.433  30.7640  0.00  0.00     0.000 HD
BRANCH 59 66
ATOM     66   O  IDS C   4      18.279  21.721  31.5450  0.00  0.00     0.000 O
ATOM     67   S  IDS C   4      17.813  21.422  33.0360  0.00  0.00     0.000 S
ATOM     68   O  IDS C   4      17.895  22.715  33.6720  0.00  0.00     0.000 OA
ATOM     69   O  IDS C   4      16.471  20.889  32.9080  0.00  0.00     0.000 OA
ATOM     70   O  IDS C   4      18.766  20.483  33.6060  0.00  0.00     0.000 OA
ENDBRANCH 59 66
BRANCH 62 71
ATOM     71   C  IDS C   4      19.738  22.971  27.1880  0.00  0.00     0.000 C
ATOM     72   O  IDS C   4      18.785  22.330  26.7880  0.00  0.00     0.000 OA
ATOM     73   O  IDS C   4      20.462  23.612  26.4010  0.00  0.00     0.000 OA
ENDBRANCH 62 71
BRANCH 58 74
ATOM     74  O4  SGN C   5      21.745  21.306  30.4690  0.00  0.00     0.000 O
BRANCH 74 78
ATOM     75  C1  SGN C   5      25.272  19.272  29.5380  0.00  0.00     0.000 C
ATOM     76  C2  SGN C   5      24.761  20.260  28.4730  0.00  0.00     0.000 C
ATOM     77  C3  SGN C   5      23.680  21.178  29.0590  0.00  0.00     0.000 C
ATOM     78  C4  SGN C   5      22.626  20.388  29.8220  0.00  0.00     0.000 C
ATOM     79  C5  SGN C   5      23.306  19.489  30.8430  0.00  0.00     0.000 C
ATOM     80  O5  SGN C   5      24.203  18.572  30.1620  0.00  0.00     0.000 O
ATOM     81   O  SGN C   5      23.081  21.920  28.0010  0.00  0.00     0.000 O
ATOM     83  HD  SGN C   5      23.545  22.208  27.3290  0.00  0.00     0.000 HD
BRANCH 76 85
ATOM     83   N  SGN C   5      26.118  20.037  27.9600  0.00  0.00     0.000 N
ATOM     85  HD  SGN C   5      26.881  20.318  27.6620  0.00  0.00     0.000 HD
ATOM     85   S  SGN C   5      26.900  20.792  26.7710  0.00  0.00     0.000 S
ATOM     86   O  SGN C   5      28.220  20.281  26.6410  0.00  0.00     0.000 OA
ATOM     87   O  SGN C   5      26.069  20.736  25.6220  0.00  0.00     0.000 OA
ATOM     88   O  SGN C   5      26.918  22.168  27.4340  0.00  0.00     0.000 OA
ENDBRANCH 76 85
BRANCH 79 89
ATOM     89   C  SGN C   5      22.335  18.675  31.6740  0.00  0.00     0.000 C
ATOM     90   O  SGN C   5      23.066  17.785  32.5510  0.00  0.00     0.000 O
ATOM     91   S  SGN C   5      22.382  17.440  33.9620  0.00  0.00     0.000 S
ATOM     92   O  SGN C   5      22.057  18.701  34.5750  0.00  0.00     0.000 OA
ATOM     93   O  SGN C   5      21.214  16.646  33.6830  0.00  0.00     0.000 OA
ATOM     94   O  SGN C   5      23.409  16.714  34.6580  0.00  0.00     0.000 OA
ENDBRANCH 79 89
BRANCH 75 95
ATOM     95  O4  BDP C   6      25.926  20.032  30.4670  0.00  0.00     0.000 O
BRANCH 95 99
ATOM     96  C1  BDP C   6      29.105  18.829  33.0930  0.00  0.00     0.000 C
ATOM     97  C2  BDP C   6      28.831  18.005  31.8660  0.00  0.00     0.000 C
ATOM     98  C3  BDP C   6      27.961  18.706  30.8130  0.00  0.00     0.000 C
ATOM     99  C4  BDP C   6      26.722  19.325  31.4430  0.00  0.00     0.000 C
ATOM    100  C5  BDP C   6      27.174  20.164  32.6610  0.00  0.00     0.000 C
ATOM    101  O5  BDP C   6      27.806  19.199  33.5180  0.00  0.00     0.000 O
BRANCH 100 102
ATOM    102   C  BDP C   6      26.016  20.766  33.4150  0.00  0.00     0.000 C
ATOM    103   O  BDP C   6      25.888  21.990  33.5660  0.00  0.00     0.000 OA
ATOM    104   O  BDP C   6      25.178  19.980  33.8740  0.00  0.00     0.000 OA
ENDBRANCH 100 102
ENDBRANCH 95 99
ENDBRANCH 75 95
ENDBRANCH 74 78
ENDBRANCH 58 74
ENDBRANCH 57 61
ENDBRANCH 37 57
ENDBRANCH 36 40
ENDBRANCH 23 36
ENDBRANCH 22 26
ENDBRANCH 1 22
TORSDOF 20
ENDMDL
MODEL 2
REMARK VINA RESULT:      -8.0     17.510     21.238
ROOT
ATOM      1  C1  NGY C   1      27.992  26.196   9.9360  0.00  0.00     0.000 C
ATOM      2  C2  NGY C   1      28.335  27.031   8.7100  0.00  0.00     0.000 C
ATOM      3  C3  NGY C   1      29.724  27.642   8.8580  0.00  0.00     0.000 C
ATOM      4  C4  NGY C   1      29.768  28.413  10.1630  0.00  0.00     0.000 C
ATOM      5  C5  NGY C   1      29.491  27.448  11.3120  0.00  0.00     0.000 C
ATOM      6  O5  NGY C   1      28.153  26.912  11.1430  0.00  0.00     0.000 O
ATOM      7   O  NGY C   1      29.991  28.473   7.7380  0.00  0.00     0.000 O
ATOM      9  HD  NGY C   1      29.548  29.012   7.2250  0.00  0.00     0.000 HD
ATOM      9   O  NGY C   1      31.032  29.036  10.3430  0.00  0.00     0.000 O
ATOM     11  HD  NGY C   1      30.589  29.576   9.8310  0.00  0.00     0.000 HD
ENDROOT
BRANCH 2 13
ATOM     11   N  NGY C   1      28.427  26.331   7.4500  0.00  0.00     0.000 N
ATOM     13  HD  NGY C   1      27.784  26.729   7.0280  0.00  0.00     0.000 HD
ATOM     13   C  NGY C   1      27.605  26.605   6.4380  0.00  0.00     0.000 C
ATOM     14   O  NGY C   1      26.645  27.364   6.5840  0.00  0.00     0.000 OA
ATOM     15   C  NGY C   1      27.927  25.970   5.1200  0.00  0.00     0.000 C
ENDBRANCH 2 13
BRANCH 5 16
ATOM     16   C  NGY C   1      29.510  28.061  12.6760  0.00  0.00     0.000 C
ATOM     17   O  NGY C   1      27.556  31.019  13.6200  0.00  0.00     0.000 OA
ATOM     18   O  NGY C   1      28.812  29.309  12.6290  0.00  0.00     0.000 O
ATOM     19   S  NGY C   1      28.340  29.877  14.0150  0.00  0.00     0.000 S
ATOM     20   O  NGY C   1      29.523  30.251  14.7460  0.00  0.00     0.000 OA
ATOM     21   O  NGY C   1      27.601  28.784  14.6270  0.00  0.00     0.000 OA
ENDBRANCH 5 16
BRANCH 1 22
ATOM     22  O4  BDP C   2      28.720  25.060   9.9060  0.00  0.00     0.000 O
BRANCH 22 26
ATOM     23  C1  BDP C   2      29.040  21.038  10.7380  0.00  0.00     0.000 C
ATOM     24  C2  BDP C   2      27.667  21.508  10.3190  0.00  0.00     0.000 C
ATOM     25  C3  BDP C   2      27.768  22.879   9.7030  0.00  0.00     0.000 C
ATOM     26  C4  BDP C   2      28.499  23.830  10.6450  0.00  0.00     0.000 C
ATOM     27  C5  BDP C   2      29.785  23.179  11.1400  0.00  0.00     0.000 C
ATOM     28  O5  BDP C   2      29.553  21.903  11.7900  0.00  0.00     0.000 O
ATOM     29   O  BDP C   2      27.113  20.709   9.2740  0.00  0.00     0.000 O
ATOM     31  HD  BDP C   2      26.632  21.122   8.6840  0.00  0.00     0.000 HD
ATOM     31   O  BDP C   2      26.437  23.333   9.4860  0.00  0.00     0.000 O
ATOM     33  HD  BDP C   2      25.957  23.746   8.8960  0.00  0.00     0.000 HD
BRANCH 27 33
ATOM     33   C  BDP C   2      30.509  24.031  12.1540  0.00  0.00     0.000 C
ATOM     34   O  BDP C   2      30.071  24.198  13.3180  0.00  0.00     0.000 OA
ATOM     35   O  BDP C   2      31.533  24.598  11.8110  0.00  0.00     0.000 OA
ENDBRANCH 27 33
BRANCH 23 36
ATOM     36  O4  SGN C   3      29.104  19.764  11.1880  0.00  0.00     0.000 O
BRANCH 36 40
ATOM     37  C1  SGN C   3      31.402  16.284  11.3920  0.00  0.00     0.000 C
ATOM     38  C2  SGN C   3      31.929  17.532  12.1200  0.00  0.00     0.000 C
ATOM     39  C3  SGN C   3      30.810  18.543  12.3210  0.00  0.00     0.000 C
ATOM     40  C4  SGN C   3      30.203  18.873  10.9740  0.00  0.00     0.000 C
ATOM     41  C5  SGN C   3      29.734  17.591  10.3230  0.00  0.00     0.000 C
ATOM     42  O5  SGN C   3      30.846  16.698  10.1540  0.00  0.00     0.000 O
ATOM     43   O  SGN C   3      31.338  19.709  12.9410  0.00  0.00     0.000 O
ATOM     45  HD  SGN C   3      30.645  19.916  12.4650  0.00  0.00     0.000 HD
BRANCH 38 47
ATOM     45   N  SGN C   3      33.143  16.710  11.9700  0.00  0.00     0.000 N
ATOM     47  HD  SGN C   3      32.500  17.153  11.5950  0.00  0.00     0.000 HD
ATOM     47   S  SGN C   3      33.948  16.579  13.3340  0.00  0.00     0.000 S
ATOM     48   O  SGN C   3      34.482  17.829  13.7430  0.00  0.00     0.000 OA
ATOM     49   O  SGN C   3      33.083  15.920  14.2570  0.00  0.00     0.000 OA
ATOM     50   O  SGN C   3      35.066  15.724  12.9390  0.00  0.00     0.000 OA
ENDBRANCH 38 47
BRANCH 41 51
ATOM     51   C  SGN C   3      29.102  17.783   8.9710  0.00  0.00     0.000 C
ATOM     52   O  SGN C   3      25.535  17.228   8.0500  0.00  0.00     0.000 OA
ATOM     53   O  SGN C   3      27.088  18.850   7.2210  0.00  0.00     0.000 OA
ATOM     54   O  SGN C   3      27.454  16.508   6.8360  0.00  0.00     0.000 OA
ATOM     55   O  SGN C   3      27.722  17.510   9.0710  0.00  0.00     0.000 O
ATOM     56   S  SGN C   3      26.872  17.525   7.6620  0.00  0.00     0.000 S
ENDBRANCH 41 51
BRANCH 37 57
ATOM     57  O4  IDS C   4      30.455  15.591  12.0710  0.00  0.00     0.000 O
BRANCH 57 61
ATOM     58  C1  IDS C   4      28.876  12.547  13.7160  0.00  0.00     0.000 C
ATOM     59  C2  IDS C   4      30.167  13.069  14.2620  0.00  0.00     0.000 C
ATOM     60  C3  IDS C   4      31.136  13.513  13.1640  0.00  0.00     0.000 C
ATOM     61  C4  IDS C   4      30.519  14.159  11.9310  0.00  0.00     0.000 C
ATOM     62  C5  IDS C   4      29.131  13.573  11.6480  0.00  0.00     0.000 C
ATOM     63  O5  IDS C   4      28.337  13.507  12.8240  0.00  0.00     0.000 O
ATOM     64   O  IDS C   4      31.808  12.335  12.7600  0.00  0.00     0.000 O
ATOM     66  HD  IDS C   4      31.592  12.126  11.9480  0.00  0.00     0.000 HD
BRANCH 59 66
ATOM     66   O  IDS C   4      29.954  14.241  15.1320  0.00  0.00     0.000 O
ATOM     67   S  IDS C   4      30.330  14.064  16.6680  0.00  0.00     0.000 S
ATOM     68   O  IDS C   4      31.759  13.862  16.6350  0.00  0.00     0.000 OA
ATOM     69   O  IDS C   4      29.903  15.296  17.3010  0.00  0.00     0.000 OA
ATOM     70   O  IDS C   4      29.632  12.883  17.1480  0.00  0.00     0.000 OA
ENDBRANCH 59 66
BRANCH 62 71
ATOM     71   C  IDS C   4      28.328  14.397  10.6590  0.00  0.00     0.000 C
ATOM     72   O  IDS C   4      27.416  15.100  11.0490  0.00  0.00     0.000 OA
ATOM     73   O  IDS C   4      28.558  14.253   9.4420  0.00  0.00     0.000 OA
ENDBRANCH 62 71
BRANCH 58 74
ATOM     74  O4  SGN C   5      28.896  11.234  13.3490  0.00  0.00     0.000 O
BRANCH 74 78
ATOM     75  C1  SGN C   5      26.639   7.803  12.5880  0.00  0.00     0.000 C
ATOM     76  C2  SGN C   5      26.697   8.839  11.4500  0.00  0.00     0.000 C
ATOM     77  C3  SGN C   5      27.809   9.865  11.7070  0.00  0.00     0.000 C
ATOM     78  C4  SGN C   5      27.751  10.410  13.1280  0.00  0.00     0.000 C
ATOM     79  C5  SGN C   5      27.725   9.253  14.1150  0.00  0.00     0.000 C
ATOM     80  O5  SGN C   5      26.558   8.426  13.8630  0.00  0.00     0.000 O
ATOM     81   O  SGN C   5      27.689  10.923  10.7610  0.00  0.00     0.000 O
ATOM     83  HD  SGN C   5      27.449  10.775   9.9420  0.00  0.00     0.000 HD
BRANCH 76 85
ATOM     83   N  SGN C   5      26.602   7.668  10.5700  0.00  0.00     0.000 N
ATOM     85  HD  SGN C   5      26.625   7.290   9.7910  0.00  0.00     0.000 HD
ATOM     85   S  SGN C   5      25.909   7.530   9.1220  0.00  0.00     0.000 S
ATOM     86   O  SGN C   5      26.093   6.219   8.6060  0.00  0.00     0.000 OA
ATOM     87   O  SGN C   5      24.573   7.991   9.2520  0.00  0.00     0.000 OA
ATOM     88   O  SGN C   5      26.821   8.523   8.4070  0.00  0.00     0.000 OA
ENDBRANCH 76 85
BRANCH 79 89
ATOM     89   C  SGN C   5      27.691   9.695  15.5640  0.00  0.00     0.000 C
ATOM     90   O  SGN C   5      26.663   8.963  16.2750  0.00  0.00     0.000 O
ATOM     91   S  SGN C   5      26.931   8.673  17.8310  0.00  0.00     0.000 S
ATOM     92   O  SGN C   5      28.229   8.054  17.9110  0.00  0.00     0.000 OA
ATOM     93   O  SGN C   5      26.883   9.941  18.5130  0.00  0.00     0.000 OA
ATOM     94   O  SGN C   5      25.854   7.792  18.1930  0.00  0.00     0.000 OA
ENDBRANCH 79 89
BRANCH 75 95
ATOM     95  O4  BDP C   6      27.801   7.088  12.5000  0.00  0.00     0.000 O
BRANCH 95 99
ATOM     96  C1  BDP C   6      28.368   3.030  13.7860  0.00  0.00     0.000 C
ATOM     97  C2  BDP C   6      26.970   3.579  13.7250  0.00  0.00     0.000 C
ATOM     98  C3  BDP C   6      26.832   4.872  12.9070  0.00  0.00     0.000 C
ATOM     99  C4  BDP C   6      27.891   5.891  13.3020  0.00  0.00     0.000 C
ATOM    100  C5  BDP C   6      29.267   5.183  13.2820  0.00  0.00     0.000 C
ATOM    101  O5  BDP C   6      29.119   4.135  14.2540  0.00  0.00     0.000 O
BRANCH 100 102
ATOM    102   C  BDP C   6      30.389   6.081  13.7350  0.00  0.00     0.000 C
ATOM    103   O  BDP C   6      31.009   6.813  12.9500  0.00  0.00     0.000 OA
ATOM    104   O  BDP C   6      30.663   6.069  14.9410  0.00  0.00     0.000 OA
ENDBRANCH 100 102
ENDBRANCH 95 99
ENDBRANCH 75 95
ENDBRANCH 74 78
ENDBRANCH 58 74
ENDBRANCH 57 61
ENDBRANCH 37 57
ENDBRANCH 36 40
ENDBRANCH 23 36
ENDBRANCH 22 26
ENDBRANCH 1 22
TORSDOF 20
ENDMDL
MODEL 3
REMARK VINA RESULT:      -7.8      2.302      2.959
ROOT
ATOM      1  C1  NGY C   1      15.594  30.026  20.6700  0.00  0.00     0.000 C
ATOM      2  C2  NGY C   1      15.606  31.509  20.3260  0.00  0.00     0.000 C
ATOM      3  C3  NGY C   1      14.410  32.209  20.9640  0.00  0.00     0.000 C
ATOM      4  C4  NGY C   1      13.149  31.484  20.5340  0.00  0.00     0.000 C
ATOM      5  C5  NGY C   1      13.230  30.037  21.0100  0.00  0.00     0.000 C
ATOM      6  O5  NGY C   1      14.364  29.407  20.3610  0.00  0.00     0.000 O
ATOM      7   O  NGY C   1      14.403  33.574  20.5690  0.00  0.00     0.000 O
ATOM      9  HD  NGY C   1      14.596  34.033  19.8610  0.00  0.00     0.000 HD
ATOM      9   O  NGY C   1      11.994  32.112  21.0710  0.00  0.00     0.000 O
ATOM     11  HD  NGY C   1      12.187  32.571  20.3630  0.00  0.00     0.000 HD
ENDROOT
BRANCH 2 13
ATOM     11   N  NGY C   1      16.576  32.156  19.4750  0.00  0.00     0.000 N
ATOM     13  HD  NGY C   1      17.064  32.528  20.0860  0.00  0.00     0.000 HD
ATOM     13   C  NGY C   1      17.571  32.885  19.9780  0.00  0.00     0.000 C
ATOM     14   O  NGY C   1      17.619  33.153  21.1800  0.00  0.00     0.000 OA
ATOM     15   C  NGY C   1      18.632  33.330  19.0180  0.00  0.00     0.000 C
ENDBRANCH 2 13
BRANCH 5 16
ATOM     16   C  NGY C   1      12.047  29.189  20.6680  0.00  0.00     0.000 C
ATOM     17   O  NGY C   1      12.180  25.543  20.2840  0.00  0.00     0.000 OA
ATOM     18   O  NGY C   1      12.498  27.861  20.3870  0.00  0.00     0.000 O
ATOM     19   S  NGY C   1      11.398  26.741  20.4490  0.00  0.00     0.000 S
ATOM     20   O  NGY C   1      10.500  26.966  19.3460  0.00  0.00     0.000 OA
ATOM     21   O  NGY C   1      10.772  26.913  21.7500  0.00  0.00     0.000 OA
ENDBRANCH 5 16
BRANCH 1 22
ATOM     22  O4  BDP C   2      15.938  29.879  21.9670  0.00  0.00     0.000 O
BRANCH 22 26
ATOM     23  C1  BDP C   2      17.619  27.708  25.0370  0.00  0.00     0.000 C
ATOM     24  C2  BDP C   2      18.536  28.007  23.8750  0.00  0.00     0.000 C
ATOM     25  C3  BDP C   2      17.932  29.089  23.0190  0.00  0.00     0.000 C
ATOM     26  C4  BDP C   2      16.509  28.714  22.6190  0.00  0.00     0.000 C
ATOM     27  C5  BDP C   2      15.729  28.262  23.8470  0.00  0.00     0.000 C
ATOM     28  O5  BDP C   2      16.365  27.159  24.5420  0.00  0.00     0.000 O
ATOM     29   O  BDP C   2      19.782  28.565  24.2940  0.00  0.00     0.000 O
ATOM     31  HD  BDP C   2      20.131  29.165  23.7760  0.00  0.00     0.000 HD
ATOM     31   O  BDP C   2      18.750  29.207  21.8620  0.00  0.00     0.000 O
ATOM     33  HD  BDP C   2      19.099  29.807  21.3450  0.00  0.00     0.000 HD
BRANCH 27 33
ATOM     33   C  BDP C   2      14.338  27.783  23.5040  0.00  0.00     0.000 C
ATOM     34   O  BDP C   2      13.312  28.420  23.8420  0.00  0.00     0.000 OA
ATOM     35   O  BDP C   2      14.220  26.724  22.9090  0.00  0.00     0.000 OA
ENDBRANCH 27 33
BRANCH 23 36
ATOM     36  O4  SGN C   3      18.110  26.843  25.9550  0.00  0.00     0.000 O
BRANCH 36 40
ATOM     37  C1  SGN C   3      17.865  25.638  29.9450  0.00  0.00     0.000 C
ATOM     38  C2  SGN C   3      16.554  25.993  29.2240  0.00  0.00     0.000 C
ATOM     39  C3  SGN C   3      16.755  25.979  27.7160  0.00  0.00     0.000 C
ATOM     40  C4  SGN C   3      17.882  26.926  27.3640  0.00  0.00     0.000 C
ATOM     41  C5  SGN C   3      19.120  26.518  28.1320  0.00  0.00     0.000 C
ATOM     42  O5  SGN C   3      18.855  26.572  29.5430  0.00  0.00     0.000 O
ATOM     43   O  SGN C   3      15.545  26.368  27.0780  0.00  0.00     0.000 O
ATOM     45  HD  SGN C   3      16.221  26.571  26.5760  0.00  0.00     0.000 HD
BRANCH 38 47
ATOM     45   N  SGN C   3      16.286  25.907  30.6700  0.00  0.00     0.000 N
ATOM     47  HD  SGN C   3      16.779  26.214  30.0280  0.00  0.00     0.000 HD
ATOM     47   S  SGN C   3      14.834  25.337  30.9760  0.00  0.00     0.000 S
ATOM     48   O  SGN C   3      13.823  26.233  30.5380  0.00  0.00     0.000 OA
ATOM     49   O  SGN C   3      14.793  24.015  30.4420  0.00  0.00     0.000 OA
ATOM     50   O  SGN C   3      14.819  25.329  32.4380  0.00  0.00     0.000 OA
ENDBRANCH 38 47
BRANCH 41 51
ATOM     51   C  SGN C   3      20.322  27.383  27.8670  0.00  0.00     0.000 C
ATOM     52   O  SGN C   3      20.699  31.012  28.6180  0.00  0.00     0.000 OA
ATOM     53   O  SGN C   3      22.338  29.268  28.6650  0.00  0.00     0.000 OA
ATOM     54   O  SGN C   3      21.294  29.901  26.5970  0.00  0.00     0.000 OA
ATOM     55   O  SGN C   3      20.064  28.683  28.3490  0.00  0.00     0.000 O
ATOM     56   S  SGN C   3      21.206  29.822  28.0250  0.00  0.00     0.000 S
ENDBRANCH 41 51
BRANCH 37 57
ATOM     57  O4  IDS C   4      18.330  24.391  29.6900  0.00  0.00     0.000 O
BRANCH 57 61
ATOM     58  C1  IDS C   4      19.146  21.397  31.8900  0.00  0.00     0.000 C
ATOM     59  C2  IDS C   4      18.462  22.576  32.5070  0.00  0.00     0.000 C
ATOM     60  C3  IDS C   4      19.004  23.911  31.9900  0.00  0.00     0.000 C
ATOM     61  C4  IDS C   4      19.420  23.957  30.5270  0.00  0.00     0.000 C
ATOM     62  C5  IDS C   4      19.952  22.594  30.0700  0.00  0.00     0.000 C
ATOM     63  O5  IDS C   4      19.103  21.532  30.4800  0.00  0.00     0.000 O
ATOM     64   O  IDS C   4      20.143  24.183  32.7860  0.00  0.00     0.000 O
ATOM     66  HD  IDS C   4      20.863  24.146  32.3060  0.00  0.00     0.000 HD
BRANCH 59 66
ATOM     66   O  IDS C   4      17.015  22.573  32.2210  0.00  0.00     0.000 O
ATOM     67   S  IDS C   4      16.069  21.965  33.3470  0.00  0.00     0.000 S
ATOM     68   O  IDS C   4      16.244  22.878  34.4510  0.00  0.00     0.000 OA
ATOM     69   O  IDS C   4      14.743  21.963  32.7600  0.00  0.00     0.000 OA
ATOM     70   O  IDS C   4      16.574  20.638  33.6620  0.00  0.00     0.000 OA
ENDBRANCH 59 66
BRANCH 62 71
ATOM     71   C  IDS C   4      20.059  22.472  28.5610  0.00  0.00     0.000 C
ATOM     72   O  IDS C   4      19.458  21.592  27.9760  0.00  0.00     0.000 OA
ATOM     73   O  IDS C   4      20.853  23.223  27.9600  0.00  0.00     0.000 OA
ENDBRANCH 62 71
BRANCH 58 74
ATOM     74  O4  SGN C   5      20.316  21.032  32.4890  0.00  0.00     0.000 O
BRANCH 74 78
ATOM     75  C1  SGN C   5      22.757  17.879  33.7300  0.00  0.00     0.000 C
ATOM     76  C2  SGN C   5      22.761  18.183  32.2200  0.00  0.00     0.000 C
ATOM     77  C3  SGN C   5      22.115  19.546  31.9390  0.00  0.00     0.000 C
ATOM     78  C4  SGN C   5      20.784  19.695  32.6630  0.00  0.00     0.000 C
ATOM     79  C5  SGN C   5      20.972  19.383  34.1400  0.00  0.00     0.000 C
ATOM     80  O5  SGN C   5      21.458  18.022  34.2900  0.00  0.00     0.000 O
ATOM     81   O  SGN C   5      21.938  19.693  30.5340  0.00  0.00     0.000 O
ATOM     83  HD  SGN C   5      22.521  19.391  29.9690  0.00  0.00     0.000 HD
BRANCH 76 85
ATOM     83   N  SGN C   5      24.192  18.135  31.8910  0.00  0.00     0.000 N
ATOM     85  HD  SGN C   5      24.851  17.945  31.3630  0.00  0.00     0.000 HD
ATOM     85   S  SGN C   5      25.034  16.974  31.1580  0.00  0.00     0.000 S
ATOM     86   O  SGN C   5      26.392  17.368  31.0040  0.00  0.00     0.000 OA
ATOM     87   O  SGN C   5      24.787  15.768  31.8640  0.00  0.00     0.000 OA
ATOM     88   O  SGN C   5      24.296  17.052  29.8240  0.00  0.00     0.000 OA
ENDBRANCH 76 85
BRANCH 79 89
ATOM     89   C  SGN C   5      19.703  19.527  34.9550  0.00  0.00     0.000 C
ATOM     90   O  SGN C   5      19.314  18.238  35.4900  0.00  0.00     0.000 O
ATOM     91   S  SGN C   5      18.555  18.243  36.9040  0.00  0.00     0.000 S
ATOM     92   O  SGN C   5      19.378  19.007  37.8040  0.00  0.00     0.000 OA
ATOM     93   O  SGN C   5      17.265  18.848  36.6890  0.00  0.00     0.000 OA
ATOM     94   O  SGN C   5      18.478  16.848  37.2430  0.00  0.00     0.000 OA
ENDBRANCH 79 89
BRANCH 75 95
ATOM     95  O4  BDP C   6      23.604  18.789  34.2950  0.00  0.00     0.000 O
BRANCH 95 99
ATOM     96  C1  BDP C   6      26.331  18.031  37.5250  0.00  0.00     0.000 C
ATOM     97  C2  BDP C   6      25.659  16.863  36.8590  0.00  0.00     0.000 C
ATOM     98  C3  BDP C   6      25.020  17.190  35.5010  0.00  0.00     0.000 C
ATOM     99  C4  BDP C   6      24.165  18.446  35.5810  0.00  0.00     0.000 C
ATOM    100  C5  BDP C   6      25.007  19.556  36.2540  0.00  0.00     0.000 C
ATOM    101  O5  BDP C   6      25.310  19.010  37.5480  0.00  0.00     0.000 O
BRANCH 100 102
ATOM    102   C  BDP C   6      24.231  20.832  36.4580  0.00  0.00     0.000 C
ATOM    103   O  BDP C   6      23.112  20.848  36.9920  0.00  0.00     0.000 OA
ATOM    104   O  BDP C   6      24.767  21.879  36.0770  0.00  0.00     0.000 OA
ENDBRANCH 100 102
ENDBRANCH 95 99
ENDBRANCH 75 95
ENDBRANCH 74 78
ENDBRANCH 58 74
ENDBRANCH 57 61
ENDBRANCH 37 57
ENDBRANCH 36 40
ENDBRANCH 23 36
ENDBRANCH 22 26
ENDBRANCH 1 22
TORSDOF 20
ENDMDL
MODEL 4
REMARK VINA RESULT:      -7.8     18.519     22.211
ROOT
ATOM      1  C1  NGY C   1      26.541  32.613  10.2530  0.00  0.00     0.000 C
ATOM      2  C2  NGY C   1      26.971  33.657   9.2310  0.00  0.00     0.000 C
ATOM      3  C3  NGY C   1      28.331  34.237   9.6090  0.00  0.00     0.000 C
ATOM      4  C4  NGY C   1      28.246  34.761  11.0300  0.00  0.00     0.000 C
ATOM      5  C5  NGY C   1      27.890  33.603  11.9580  0.00  0.00     0.000 C
ATOM      6  O5  NGY C   1      26.583  33.101  11.5770  0.00  0.00     0.000 O
ATOM      7   O  NGY C   1      28.676  35.257   8.6830  0.00  0.00     0.000 O
ATOM      9  HD  NGY C   1      28.269  35.878   8.2380  0.00  0.00     0.000 HD
ATOM      9   O  NGY C   1      29.477  35.346  11.4290  0.00  0.00     0.000 O
ATOM     11  HD  NGY C   1      29.070  35.967  10.9840  0.00  0.00     0.000 HD
ENDROOT
BRANCH 2 13
ATOM     11   N  NGY C   1      26.536  34.306   8.0170  0.00  0.00     0.000 N
ATOM     13  HD  NGY C   1      26.587  33.630   7.4780  0.00  0.00     0.000 HD
ATOM     13   C  NGY C   1      26.450  33.644   6.8640  0.00  0.00     0.000 C
ATOM     14   O  NGY C   1      26.873  32.492   6.7570  0.00  0.00     0.000 OA
ATOM     15   C  NGY C   1      25.791  34.361   5.7250  0.00  0.00     0.000 C
ENDBRANCH 2 13
BRANCH 5 16
ATOM     16   C  NGY C   1      27.779  33.961  13.4060  0.00  0.00     0.000 C
ATOM     17   O  NGY C   1      30.209  32.949  15.9610  0.00  0.00     0.000 OA
ATOM     18   O  NGY C   1      28.765  33.228  14.1380  0.00  0.00     0.000 O
ATOM     19   S  NGY C   1      29.104  33.786  15.5670  0.00  0.00     0.000 S
ATOM     20   O  NGY C   1      27.941  33.581  16.3910  0.00  0.00     0.000 OA
ATOM     21   O  NGY C   1      29.421  35.188  15.3480  0.00  0.00     0.000 OA
ENDBRANCH 5 16
BRANCH 1 22
ATOM     22  O4  BDP C   2      27.291  31.504  10.0840  0.00  0.00     0.000 O
BRANCH 22 26
ATOM     23  C1  BDP C   2      27.689  27.405  10.1530  0.00  0.00     0.000 C
ATOM     24  C2  BDP C   2      26.432  27.925   9.4960  0.00  0.00     0.000 C
ATOM     25  C3  BDP C   2      26.582  29.397   9.2120  0.00  0.00     0.000 C
ATOM     26  C4  BDP C   2      26.984  30.142  10.4810  0.00  0.00     0.000 C
ATOM     27  C5  BDP C   2      28.150  29.427  11.1510  0.00  0.00     0.000 C
ATOM     28  O5  BDP C   2      27.858  28.038  11.4520  0.00  0.00     0.000 O
ATOM     29   O  BDP C   2      26.216  27.354   8.2050  0.00  0.00     0.000 O
ATOM     31  HD  BDP C   2      25.868  27.873   7.6050  0.00  0.00     0.000 HD
ATOM     31   O  BDP C   2      25.318  29.860   8.7530  0.00  0.00     0.000 O
ATOM     33  HD  BDP C   2      24.970  30.379   8.1530  0.00  0.00     0.000 HD
BRANCH 27 33
ATOM     33   C  BDP C   2      28.535  30.059  12.4680  0.00  0.00     0.000 C
ATOM     34   O  BDP C   2      29.723  30.348  12.7450  0.00  0.00     0.000 OA
ATOM     35   O  BDP C   2      27.659  30.260  13.2930  0.00  0.00     0.000 OA
ENDBRANCH 27 33
BRANCH 23 36
ATOM     36  O4  SGN C   3      27.732  26.066  10.3410  0.00  0.00     0.000 O
BRANCH 36 40
ATOM     37  C1  SGN C   3      30.082  22.629  10.0230  0.00  0.00     0.000 C
ATOM     38  C2  SGN C   3      30.251  23.497  11.2810  0.00  0.00     0.000 C
ATOM     39  C3  SGN C   3      29.059  24.426  11.4520  0.00  0.00     0.000 C
ATOM     40  C4  SGN C   3      28.901  25.255  10.1960  0.00  0.00     0.000 C
ATOM     41  C5  SGN C   3      28.764  24.325   9.0110  0.00  0.00     0.000 C
ATOM     42  O5  SGN C   3      29.932  23.495   8.9080  0.00  0.00     0.000 O
ATOM     43   O  SGN C   3      29.270  25.256  12.5870  0.00  0.00     0.000 O
ATOM     45  HD  SGN C   3      28.757  25.660  12.0180  0.00  0.00     0.000 HD
BRANCH 38 47
ATOM     45   N  SGN C   3      31.521  22.749  11.2640  0.00  0.00     0.000 N
ATOM     47  HD  SGN C   3      31.001  23.330  10.8870  0.00  0.00     0.000 HD
ATOM     47   S  SGN C   3      31.827  22.059  12.6630  0.00  0.00     0.000 S
ATOM     48   O  SGN C   3      32.065  23.026  13.6760  0.00  0.00     0.000 OA
ATOM     49   O  SGN C   3      30.772  21.129  12.9000  0.00  0.00     0.000 OA
ATOM     50   O  SGN C   3      33.093  21.380  12.3890  0.00  0.00     0.000 OA
ENDBRANCH 38 47
BRANCH 41 51
ATOM     51   C  SGN C   3      28.596  25.028   7.6920  0.00  0.00     0.000 C
ATOM     52   O  SGN C   3      30.673  27.808   6.3370  0.00  0.00     0.000 OA
ATOM     53   O  SGN C   3      29.581  26.019   5.1810  0.00  0.00     0.000 OA
ATOM     54   O  SGN C   3      28.295  27.676   6.3500  0.00  0.00     0.000 OA
ATOM     55   O  SGN C   3      29.624  25.983   7.5500  0.00  0.00     0.000 O
ATOM     56   S  SGN C   3      29.533  26.963   6.2310  0.00  0.00     0.000 S
ENDBRANCH 41 51
BRANCH 37 57
ATOM     57  O4  IDS C   4      29.017  21.790  10.0540  0.00  0.00     0.000 O
BRANCH 57 61
ATOM     58  C1  IDS C   4      28.826  18.039   9.4510  0.00  0.00     0.000 C
ATOM     59  C2  IDS C   4      30.168  18.700   9.4470  0.00  0.00     0.000 C
ATOM     60  C3  IDS C   4      30.155  20.063   8.7510  0.00  0.00     0.000 C
ATOM     61  C4  IDS C   4      28.898  20.904   8.9250  0.00  0.00     0.000 C
ATOM     62  C5  IDS C   4      27.659  20.010   9.0590  0.00  0.00     0.000 C
ATOM     63  O5  IDS C   4      27.873  18.948   9.9770  0.00  0.00     0.000 O
ATOM     64   O  IDS C   4      30.314  19.779   7.3740  0.00  0.00     0.000 O
ATOM     66  HD  IDS C   4      29.594  19.982   6.9370  0.00  0.00     0.000 HD
BRANCH 59 66
ATOM     66   O  IDS C   4      30.661  18.935  10.8180  0.00  0.00     0.000 O
ATOM     67   S  IDS C   4      31.415  17.722  11.5190  0.00  0.00     0.000 S
ATOM     68   O  IDS C   4      32.596  17.555  10.7070  0.00  0.00     0.000 OA
ATOM     69   O  IDS C   4      31.664  18.171  12.8750  0.00  0.00     0.000 OA
ATOM     70   O  IDS C   4      30.538  16.564  11.4360  0.00  0.00     0.000 OA
ENDBRANCH 59 66
BRANCH 62 71
ATOM     71   C  IDS C   4      26.441  20.754   9.5710  0.00  0.00     0.000 C
ATOM     72   O  IDS C   4      25.330  20.439   9.1920  0.00  0.00     0.000 OA
ATOM     73   O  IDS C   4      26.617  21.752  10.2990  0.00  0.00     0.000 OA
ENDBRANCH 62 71
BRANCH 58 74
ATOM     74  O4  SGN C   5      28.525  17.340   8.3190  0.00  0.00     0.000 O
BRANCH 74 78
ATOM     75  C1  SGN C   5      26.499  14.080   6.6740  0.00  0.00     0.000 C
ATOM     76  C2  SGN C   5      25.616  15.200   7.2570  0.00  0.00     0.000 C
ATOM     77  C3  SGN C   5      26.444  16.467   7.5100  0.00  0.00     0.000 C
ATOM     78  C4  SGN C   5      27.734  16.154   8.2560  0.00  0.00     0.000 C
ATOM     79  C5  SGN C   5      28.485  15.049   7.5280  0.00  0.00     0.000 C
ATOM     80  O5  SGN C   5      27.657  13.857   7.4680  0.00  0.00     0.000 O
ATOM     81   O  SGN C   5      25.654  17.395   8.2460  0.00  0.00     0.000 O
ATOM     83  HD  SGN C   5      24.804  17.482   8.1040  0.00  0.00     0.000 HD
BRANCH 76 85
ATOM     83   N  SGN C   5      24.423  14.406   6.9390  0.00  0.00     0.000 N
ATOM     85  HD  SGN C   5      23.776  14.171   6.4130  0.00  0.00     0.000 HD
ATOM     85   S  SGN C   5      23.065  14.854   6.1960  0.00  0.00     0.000 S
ATOM     86   O  SGN C   5      22.186  13.745   6.0570  0.00  0.00     0.000 OA
ATOM     87   O  SGN C   5      22.566  15.991   6.8840  0.00  0.00     0.000 OA
ATOM     88   O  SGN C   5      23.714  15.197   4.8580  0.00  0.00     0.000 OA
ENDBRANCH 76 85
BRANCH 79 89
ATOM     89   C  SGN C   5      29.801  14.681   8.1820  0.00  0.00     0.000 C
ATOM     90   O  SGN C   5      29.556  14.124   9.4970  0.00  0.00     0.000 O
ATOM     91   S  SGN C   5      30.596  13.018  10.0170  0.00  0.00     0.000 S
ATOM     92   O  SGN C   5      30.678  12.019   8.9830  0.00  0.00     0.000 OA
ATOM     93   O  SGN C   5      31.852  13.688  10.2360  0.00  0.00     0.000 OA
ATOM     94   O  SGN C   5      29.990  12.538  11.2290  0.00  0.00     0.000 OA
ENDBRANCH 79 89
BRANCH 75 95
ATOM     95  O4  BDP C   6      26.870  14.508   5.4310  0.00  0.00     0.000 O
BRANCH 95 99
ATOM     96  C1  BDP C   6      27.729  12.364   1.8100  0.00  0.00     0.000 C
ATOM     97  C2  BDP C   6      26.544  11.944   2.6330  0.00  0.00     0.000 C
ATOM     98  C3  BDP C   6      26.096  12.981   3.6740  0.00  0.00     0.000 C
ATOM     99  C4  BDP C   6      27.276  13.494   4.4870  0.00  0.00     0.000 C
ATOM    100  C5  BDP C   6      28.389  13.916   3.4990  0.00  0.00     0.000 C
ATOM    101  O5  BDP C   6      28.690  12.701   2.7930  0.00  0.00     0.000 O
BRANCH 100 102
ATOM    102   C  BDP C   6      29.645  14.371   4.1980  0.00  0.00     0.000 C
ATOM    103   O  BDP C   6      30.432  13.575   4.7290  0.00  0.00     0.000 OA
ATOM    104   O  BDP C   6      29.869  15.587   4.2100  0.00  0.00     0.000 OA
ENDBRANCH 100 102
ENDBRANCH 95 99
ENDBRANCH 75 95
ENDBRANCH 74 78
ENDBRANCH 58 74
ENDBRANCH 57 61
ENDBRANCH 37 57
ENDBRANCH 36 40
ENDBRANCH 23 36
ENDBRANCH 22 26
ENDBRANCH 1 22
TORSDOF 20
ENDMDL
MODEL 5
REMARK VINA RESULT:      -7.6      2.263      3.189
ROOT
ATOM      1  C1  NGY C   1      15.369  29.985  21.4000  0.00  0.00     0.000 C
ATOM      2  C2  NGY C   1      15.231  31.491  21.5790  0.00  0.00     0.000 C
ATOM      3  C3  NGY C   1      14.011  31.811  22.4360  0.00  0.00     0.000 C
ATOM      4  C4  NGY C   1      12.800  31.150  21.8050  0.00  0.00     0.000 C
ATOM      5  C5  NGY C   1      13.033  29.642  21.7600  0.00  0.00     0.000 C
ATOM      6  O5  NGY C   1      14.186  29.385  20.9170  0.00  0.00     0.000 O
ATOM      7   O  NGY C   1      13.862  33.220  22.5280  0.00  0.00     0.000 O
ATOM      9  HD  NGY C   1      13.979  33.908  22.0150  0.00  0.00     0.000 HD
ATOM      9   O  NGY C   1      11.621  31.440  22.5420  0.00  0.00     0.000 O
ATOM     11  HD  NGY C   1      11.738  32.128  22.0290  0.00  0.00     0.000 HD
ENDROOT
BRANCH 2 13
ATOM     11   N  NGY C   1      16.151  32.421  20.9670  0.00  0.00     0.000 N
ATOM     13  HD  NGY C   1      16.578  32.674  21.6770  0.00  0.00     0.000 HD
ATOM     13   C  NGY C   1      17.047  33.093  21.6880  0.00  0.00     0.000 C
ATOM     14   O  NGY C   1      17.031  33.056  22.9200  0.00  0.00     0.000 OA
ATOM     15   C  NGY C   1      18.080  33.866  20.9260  0.00  0.00     0.000 C
ENDBRANCH 2 13
BRANCH 5 16
ATOM     16   C  NGY C   1      11.915  28.844  21.1700  0.00  0.00     0.000 C
ATOM     17   O  NGY C   1      12.223  25.338  20.1360  0.00  0.00     0.000 OA
ATOM     18   O  NGY C   1      12.439  27.604  20.6890  0.00  0.00     0.000 O
ATOM     19   S  NGY C   1      11.383  26.466  20.4500  0.00  0.00     0.000 S
ATOM     20   O  NGY C   1      10.567  26.870  19.3350  0.00  0.00     0.000 OA
ATOM     21   O  NGY C   1      10.651  26.377  21.7030  0.00  0.00     0.000 OA
ENDBRANCH 5 16
BRANCH 1 22
ATOM     22  O4  BDP C   2      15.788  29.445  22.5630  0.00  0.00     0.000 O
BRANCH 22 26
ATOM     23  C1  BDP C   2      18.099  26.704  24.5920  0.00  0.00     0.000 C
ATOM     24  C2  BDP C   2      18.759  27.355  23.3990  0.00  0.00     0.000 C
ATOM     25  C3  BDP C   2      17.970  28.569  22.9840  0.00  0.00     0.000 C
ATOM     26  C4  BDP C   2      16.506  28.200  22.7710  0.00  0.00     0.000 C
ATOM     27  C5  BDP C   2      15.996  27.397  23.9600  0.00  0.00     0.000 C
ATOM     28  O5  BDP C   2      16.785  26.205  24.2110  0.00  0.00     0.000 O
ATOM     29   O  BDP C   2      20.048  27.882  23.7110  0.00  0.00     0.000 O
ATOM     31  HD  BDP C   2      20.273  28.618  23.3140  0.00  0.00     0.000 HD
ATOM     31   O  BDP C   2      18.539  29.036  21.7670  0.00  0.00     0.000 O
ATOM     33  HD  BDP C   2      18.763  29.772  21.3700  0.00  0.00     0.000 HD
BRANCH 27 33
ATOM     33   C  BDP C   2      14.578  26.915  23.7670  0.00  0.00     0.000 C
ATOM     34   O  BDP C   2      14.278  26.055  22.9050  0.00  0.00     0.000 OA
ATOM     35   O  BDP C   2      13.699  27.411  24.4530  0.00  0.00     0.000 OA
ENDBRANCH 27 33
BRANCH 23 36
ATOM     36  O4  SGN C   3      18.783  25.676  25.1430  0.00  0.00     0.000 O
BRANCH 36 40
ATOM     37  C1  SGN C   3      20.161  23.967  28.6950  0.00  0.00     0.000 C
ATOM     38  C2  SGN C   3      18.681  23.763  28.3310  0.00  0.00     0.000 C
ATOM     39  C3  SGN C   3      18.452  24.049  26.8550  0.00  0.00     0.000 C
ATOM     40  C4  SGN C   3      18.934  25.451  26.5480  0.00  0.00     0.000 C
ATOM     41  C5  SGN C   3      20.385  25.568  26.9570  0.00  0.00     0.000 C
ATOM     42  O5  SGN C   3      20.517  25.300  28.3610  0.00  0.00     0.000 O
ATOM     43   O  SGN C   3      17.067  23.911  26.5600  0.00  0.00     0.000 O
ATOM     45  HD  SGN C   3      17.431  24.472  26.0100  0.00  0.00     0.000 HD
BRANCH 38 47
ATOM     45   N  SGN C   3      18.655  23.523  29.7850  0.00  0.00     0.000 N
ATOM     47  HD  SGN C   3      18.778  24.076  29.1300  0.00  0.00     0.000 HD
ATOM     47   S  SGN C   3      17.944  22.149  30.1500  0.00  0.00     0.000 S
ATOM     48   O  SGN C   3      16.562  22.179  29.8280  0.00  0.00     0.000 OA
ATOM     49   O  SGN C   3      18.720  21.114  29.5480  0.00  0.00     0.000 OA
ATOM     50   O  SGN C   3      18.062  22.131  31.6070  0.00  0.00     0.000 OA
ENDBRANCH 38 47
BRANCH 41 51
ATOM     51   C  SGN C   3      20.990  26.921  26.6980  0.00  0.00     0.000 C
ATOM     52   O  SGN C   3      19.865  30.194  28.0760  0.00  0.00     0.000 OA
ATOM     53   O  SGN C   3      22.077  29.439  27.5560  0.00  0.00     0.000 OA
ATOM     54   O  SGN C   3      20.446  29.718  25.8160  0.00  0.00     0.000 OA
ATOM     55   O  SGN C   3      20.291  27.885  27.4540  0.00  0.00     0.000 O
ATOM     56   S  SGN C   3      20.709  29.456  27.2000  0.00  0.00     0.000 S
ENDBRANCH 41 51
BRANCH 37 57
ATOM     57  O4  IDS C   4      21.020  23.129  28.0640  0.00  0.00     0.000 O
BRANCH 57 61
ATOM     58  C1  IDS C   4      23.978  20.987  29.1270  0.00  0.00     0.000 C
ATOM     59  C2  IDS C   4      23.123  21.607  30.1860  0.00  0.00     0.000 C
ATOM     60  C3  IDS C   4      22.696  23.036  29.8400  0.00  0.00     0.000 C
ATOM     61  C4  IDS C   4      22.413  23.326  28.3730  0.00  0.00     0.000 C
ATOM     62  C5  IDS C   4      23.302  22.465  27.4670  0.00  0.00     0.000 C
ATOM     63  O5  IDS C   4      23.315  21.106  27.8800  0.00  0.00     0.000 O
ATOM     64   O  IDS C   4      23.771  23.857  30.2570  0.00  0.00     0.000 O
ATOM     66  HD  IDS C   4      24.159  24.220  29.5720  0.00  0.00     0.000 HD
BRANCH 59 66
ATOM     66   O  IDS C   4      21.881  20.840  30.4000  0.00  0.00     0.000 O
ATOM     67   S  IDS C   4      21.688  20.186  31.8380  0.00  0.00     0.000 S
ATOM     68   O  IDS C   4      21.589  21.332  32.7090  0.00  0.00     0.000 OA
ATOM     69   O  IDS C   4      20.478  19.395  31.7290  0.00  0.00     0.000 OA
ATOM     70   O  IDS C   4      22.881  19.401  32.1170  0.00  0.00     0.000 OA
ENDBRANCH 59 66
BRANCH 62 71
ATOM     71   C  IDS C   4      22.840  22.449  26.0220  0.00  0.00     0.000 C
ATOM     72   O  IDS C   4      22.383  21.432  25.5390  0.00  0.00     0.000 OA
ATOM     73   O  IDS C   4      23.038  23.464  25.3250  0.00  0.00     0.000 OA
ENDBRANCH 62 71
BRANCH 58 74
ATOM     74  O4  SGN C   5      25.305  21.290  29.2080  0.00  0.00     0.000 O
BRANCH 74 78
ATOM     75  C1  SGN C   5      29.171  19.723  29.0150  0.00  0.00     0.000 C
ATOM     76  C2  SGN C   5      28.672  20.448  27.7510  0.00  0.00     0.000 C
ATOM     77  C3  SGN C   5      27.407  21.261  28.0560  0.00  0.00     0.000 C
ATOM     78  C4  SGN C   5      26.382  20.436  28.8220  0.00  0.00     0.000 C
ATOM     79  C5  SGN C   5      27.040  19.818  30.0460  0.00  0.00     0.000 C
ATOM     80  O5  SGN C   5      28.137  18.964  29.6280  0.00  0.00     0.000 O
ATOM     81   O  SGN C   5      26.855  21.732  26.8310  0.00  0.00     0.000 O
ATOM     83  HD  SGN C   5      27.359  21.987  26.1740  0.00  0.00     0.000 HD
BRANCH 76 85
ATOM     83   N  SGN C   5      29.595  21.372  27.0810  0.00  0.00     0.000 N
ATOM     85  HD  SGN C   5      30.099  21.605  26.4160  0.00  0.00     0.000 HD
ATOM     85   S  SGN C   5      30.921  21.052  26.2250  0.00  0.00     0.000 S
ATOM     86   O  SGN C   5      31.487  22.254  25.7170  0.00  0.00     0.000 OA
ATOM     87   O  SGN C   5      31.755  20.238  27.0340  0.00  0.00     0.000 OA
ATOM     88   O  SGN C   5      30.218  20.277  25.1140  0.00  0.00     0.000 OA
ENDBRANCH 76 85
BRANCH 79 89
ATOM     89   C  SGN C   5      26.090  18.994  30.8910  0.00  0.00     0.000 C
ATOM     90   O  SGN C   5      26.635  17.666  31.0880  0.00  0.00     0.000 O
ATOM     91   S  SGN C   5      26.271  16.935  32.4690  0.00  0.00     0.000 S
ATOM     92   O  SGN C   5      26.620  17.854  33.5210  0.00  0.00     0.000 OA
ATOM     93   O  SGN C   5      24.860  16.646  32.4360  0.00  0.00     0.000 OA
ATOM     94   O  SGN C   5      27.092  15.755  32.4450  0.00  0.00     0.000 OA
ENDBRANCH 79 89
BRANCH 75 95
ATOM     95  O4  BDP C   6      29.586  20.706  29.8690  0.00  0.00     0.000 O
BRANCH 95 99
ATOM     96  C1  BDP C   6      32.641  20.579  32.8850  0.00  0.00     0.000 C
ATOM     97  C2  BDP C   6      32.755  19.657  31.7030  0.00  0.00     0.000 C
ATOM     98  C3  BDP C   6      31.854  20.033  30.5170  0.00  0.00     0.000 C
ATOM     99  C4  BDP C   6      30.426  20.301  30.9710  0.00  0.00     0.000 C
ATOM    100  C5  BDP C   6      30.479  21.287  32.1610  0.00  0.00     0.000 C
ATOM    101  O5  BDP C   6      31.250  20.582  33.1480  0.00  0.00     0.000 O
BRANCH 100 102
ATOM    102   C  BDP C   6      29.119  21.565  32.7470  0.00  0.00     0.000 C
ATOM    103   O  BDP C   6      28.633  22.705  32.7810  0.00  0.00     0.000 OA
ATOM    104   O  BDP C   6      28.490  20.595  33.1870  0.00  0.00     0.000 OA
ENDBRANCH 100 102
ENDBRANCH 95 99
ENDBRANCH 75 95
ENDBRANCH 74 78
ENDBRANCH 58 74
ENDBRANCH 57 61
ENDBRANCH 37 57
ENDBRANCH 36 40
ENDBRANCH 23 36
ENDBRANCH 22 26
ENDBRANCH 1 22
TORSDOF 20
ENDMDL
MODEL 6
REMARK VINA RESULT:      -7.5     30.132     35.947
ROOT
ATOM      1  C1  NGY C   1      24.114   5.223  60.7930  0.00  0.00     0.000 C
ATOM      2  C2  NGY C   1      24.059   3.876  61.5000  0.00  0.00     0.000 C
ATOM      3  C3  NGY C   1      23.307   2.861  60.6450  0.00  0.00     0.000 C
ATOM      4  C4  NGY C   1      21.946   3.439  60.3080  0.00  0.00     0.000 C
ATOM      5  C5  NGY C   1      22.143   4.738  59.5330  0.00  0.00     0.000 C
ATOM      6  O5  NGY C   1      22.840   5.678  60.3920  0.00  0.00     0.000 O
ATOM      7   O  NGY C   1      23.206   1.636  61.3560  0.00  0.00     0.000 O
ATOM      9  HD  NGY C   1      23.096   1.382  62.1770  0.00  0.00     0.000 HD
ATOM      9   O  NGY C   1      21.182   2.522  59.5380  0.00  0.00     0.000 O
ATOM     11  HD  NGY C   1      21.071   2.269  60.3590  0.00  0.00     0.000 HD
ENDROOT
BRANCH 2 13
ATOM     11   N  NGY C   1      25.431   3.703  61.9170  0.00  0.00     0.000 N
ATOM     13  HD  NGY C   1      25.299   3.191  62.6040  0.00  0.00     0.000 HD
ATOM     13   C  NGY C   1      25.749   2.964  62.9790  0.00  0.00     0.000 C
ATOM     14   O  NGY C   1      24.879   2.518  63.7290  0.00  0.00     0.000 OA
ATOM     15   C  NGY C   1      27.206   2.685  63.1930  0.00  0.00     0.000 C
ENDBRANCH 2 13
BRANCH 5 16
ATOM     16   C  NGY C   1      20.883   5.428  59.1180  0.00  0.00     0.000 C
ATOM     17   O  NGY C   1      19.624   8.505  60.6670  0.00  0.00     0.000 OA
ATOM     18   O  NGY C   1      20.588   6.457  60.0650  0.00  0.00     0.000 O
ATOM     19   S  NGY C   1      19.584   7.563  59.5780  0.00  0.00     0.000 S
ATOM     20   O  NGY C   1      18.295   6.936  59.4420  0.00  0.00     0.000 OA
ATOM     21   O  NGY C   1      20.137   8.031  58.3180  0.00  0.00     0.000 OA
ENDBRANCH 5 16
BRANCH 1 22
ATOM     22  O4  BDP C   2      24.983   5.138  59.7640  0.00  0.00     0.000 O
BRANCH 22 26
ATOM     23  C1  BDP C   2      27.636   6.846  57.1150  0.00  0.00     0.000 C
ATOM     24  C2  BDP C   2      28.007   6.964  58.5740  0.00  0.00     0.000 C
ATOM     25  C3  BDP C   2      27.176   6.006  59.3870  0.00  0.00     0.000 C
ATOM     26  C4  BDP C   2      25.694   6.214  59.0960  0.00  0.00     0.000 C
ATOM     27  C5  BDP C   2      25.463   6.251  57.5900  0.00  0.00     0.000 C
ATOM     28  O5  BDP C   2      26.256   7.269  56.9270  0.00  0.00     0.000 O
ATOM     29   O  BDP C   2      29.348   6.546  58.8300  0.00  0.00     0.000 O
ATOM     31  HD  BDP C   2      29.491   6.139  59.5810  0.00  0.00     0.000 HD
ATOM     31   O  BDP C   2      27.448   6.281  60.7560  0.00  0.00     0.000 O
ATOM     33  HD  BDP C   2      27.591   5.874  61.5070  0.00  0.00     0.000 HD
BRANCH 27 33
ATOM     33   C  BDP C   2      24.027   6.553  57.2340  0.00  0.00     0.000 C
ATOM     34   O  BDP C   2      23.399   7.508  57.7500  0.00  0.00     0.000 OA
ATOM     35   O  BDP C   2      23.459   5.818  56.4430  0.00  0.00     0.000 OA
ENDBRANCH 27 33
BRANCH 23 36
ATOM     36  O4  SGN C   3      28.404   7.562  56.2620  0.00  0.00     0.000 O
BRANCH 36 40
ATOM     37  C1  SGN C   3      29.841   7.860  52.3540  0.00  0.00     0.000 C
ATOM     38  C2  SGN C   3      28.420   8.376  52.6330  0.00  0.00     0.000 C
ATOM     39  C3  SGN C   3      28.219   8.601  54.1240  0.00  0.00     0.000 C
ATOM     40  C4  SGN C   3      28.521   7.313  54.8580  0.00  0.00     0.000 C
ATOM     41  C5  SGN C   3      29.924   6.869  54.5080  0.00  0.00     0.000 C
ATOM     42  O5  SGN C   3      30.029   6.663  53.0910  0.00  0.00     0.000 O
ATOM     43   O  SGN C   3      26.880   9.020  54.3590  0.00  0.00     0.000 O
ATOM     45  HD  SGN C   3      27.189   8.613  55.0590  0.00  0.00     0.000 HD
BRANCH 38 47
ATOM     45   N  SGN C   3      27.942   8.102  51.2660  0.00  0.00     0.000 N
ATOM     47  HD  SGN C   3      28.052   7.825  52.0790  0.00  0.00     0.000 HD
ATOM     47   S  SGN C   3      27.828   9.427  50.3970  0.00  0.00     0.000 S
ATOM     48   O  SGN C   3      26.818  10.290  50.8980  0.00  0.00     0.000 OA
ATOM     49   O  SGN C   3      29.144   9.968  50.3010  0.00  0.00     0.000 OA
ATOM     50   O  SGN C   3      27.367   8.901  49.1130  0.00  0.00     0.000 OA
ENDBRANCH 38 47
BRANCH 41 51
ATOM     51   C  SGN C   3      30.352   5.593  55.1810  0.00  0.00     0.000 C
ATOM     52   O  SGN C   3      32.709   5.235  58.0450  0.00  0.00     0.000 OA
ATOM     53   O  SGN C   3      30.770   3.942  57.4960  0.00  0.00     0.000 OA
ATOM     54   O  SGN C   3      32.683   3.943  56.0440  0.00  0.00     0.000 OA
ATOM     55   O  SGN C   3      31.214   5.910  56.2520  0.00  0.00     0.000 O
ATOM     56   S  SGN C   3      31.909   4.637  57.0300  0.00  0.00     0.000 S
ENDBRANCH 41 51
BRANCH 37 57
ATOM     57  O4  IDS C   4      30.832   8.723  52.6880  0.00  0.00     0.000 O
BRANCH 57 61
ATOM     58  C1  IDS C   4      34.143   9.898  51.2300  0.00  0.00     0.000 C
ATOM     59  C2  IDS C   4      33.205   9.130  50.3540  0.00  0.00     0.000 C
ATOM     60  C3  IDS C   4      32.521   7.974  51.0890  0.00  0.00     0.000 C
ATOM     61  C4  IDS C   4      32.170   8.209  52.5510  0.00  0.00     0.000 C
ATOM     62  C5  IDS C   4      33.188   9.147  53.2100  0.00  0.00     0.000 C
ATOM     63  O5  IDS C   4      33.453  10.287  52.4050  0.00  0.00     0.000 O
ATOM     64   O  IDS C   4      33.435   6.896  51.0170  0.00  0.00     0.000 O
ATOM     66  HD  IDS C   4      33.741   6.705  51.8050  0.00  0.00     0.000 HD
BRANCH 59 66
ATOM     66   O  IDS C   4      32.125   9.990  49.8310  0.00  0.00     0.000 O
ATOM     67   S  IDS C   4      32.049  10.152  48.2500  0.00  0.00     0.000 S
ATOM     68   O  IDS C   4      31.734   8.818  47.7980  0.00  0.00     0.000 OA
ATOM     69   O  IDS C   4      31.007  11.134  48.0260  0.00  0.00     0.000 OA
ATOM     70   O  IDS C   4      33.364  10.576  47.7970  0.00  0.00     0.000 OA
ENDBRANCH 59 66
BRANCH 62 71
ATOM     71   C  IDS C   4      32.718   9.690  54.5460  0.00  0.00     0.000 C
ATOM     72   O  IDS C   4      32.525  10.883  54.6860  0.00  0.00     0.000 OA
ATOM     73   O  IDS C   4      32.637   8.905  55.5120  0.00  0.00     0.000 OA
ENDBRANCH 62 71
BRANCH 58 74
ATOM     74  O4  SGN C   5      35.394   9.366  51.3370  0.00  0.00     0.000 O
BRANCH 74 78
ATOM     75  C1  SGN C   5      39.495  10.157  51.2680  0.00  0.00     0.000 C
ATOM     76  C2  SGN C   5      38.814  10.236  52.6480  0.00  0.00     0.000 C
ATOM     77  C3  SGN C   5      37.418   9.602  52.6010  0.00  0.00     0.000 C
ATOM     78  C4  SGN C   5      36.613  10.106  51.4120  0.00  0.00     0.000 C
ATOM     79  C5  SGN C   5      37.425   9.928  50.1370  0.00  0.00     0.000 C
ATOM     80  O5  SGN C   5      38.662  10.681  50.2420  0.00  0.00     0.000 O
ATOM     81   O  SGN C   5      36.740   9.888  53.8210  0.00  0.00     0.000 O
ATOM     83  HD  SGN C   5      37.158   9.906  54.5790  0.00  0.00     0.000 HD
BRANCH 76 85
ATOM     83   N  SGN C   5      40.219  10.240  53.0760  0.00  0.00     0.000 N
ATOM     85  HD  SGN C   5      40.875   9.943  53.5580  0.00  0.00     0.000 HD
ATOM     85   S  SGN C   5      40.837  10.087  54.5560  0.00  0.00     0.000 S
ATOM     86   O  SGN C   5      42.258  10.103  54.5050  0.00  0.00     0.000 OA
ATOM     87   O  SGN C   5      40.210  11.061  55.3750  0.00  0.00     0.000 OA
ATOM     88   O  SGN C   5      40.324   8.671  54.8040  0.00  0.00     0.000 OA
ENDBRANCH 76 85
BRANCH 79 89
ATOM     89   C  SGN C   5      36.696  10.381  48.8880  0.00  0.00     0.000 C
ATOM     90   O  SGN C   5      37.112  11.723  48.5380  0.00  0.00     0.000 O
ATOM     91   S  SGN C   5      37.114  12.093  46.9760  0.00  0.00     0.000 S
ATOM     92   O  SGN C   5      37.883  11.069  46.3170  0.00  0.00     0.000 OA
ATOM     93   O  SGN C   5      35.740  12.113  46.5440  0.00  0.00     0.000 OA
ATOM     94   O  SGN C   5      37.738  13.388  46.9440  0.00  0.00     0.000 OA
ENDBRANCH 79 89
BRANCH 75 95
ATOM     95  O4  BDP C   6      39.722   8.829  51.0410  0.00  0.00     0.000 O
BRANCH 95 99
ATOM     96  C1  BDP C   6      42.804   6.888  48.7650  0.00  0.00     0.000 C
ATOM     97  C2  BDP C   6      43.131   8.172  49.4740  0.00  0.00     0.000 C
ATOM     98  C3  BDP C   6      42.112   8.579  50.5490  0.00  0.00     0.000 C
ATOM     99  C4  BDP C   6      40.688   8.498  50.0200  0.00  0.00     0.000 C
ATOM    100  C5  BDP C   6      40.502   7.114  49.3550  0.00  0.00     0.000 C
ATOM    101  O5  BDP C   6      41.483   7.111  48.3060  0.00  0.00     0.000 O
BRANCH 100 102
ATOM    102   C  BDP C   6      39.144   6.950  48.7220  0.00  0.00     0.000 C
ATOM    103   O  BDP C   6      38.741   7.696  47.8180  0.00  0.00     0.000 OA
ATOM    104   O  BDP C   6      38.442   6.021  49.1370  0.00  0.00     0.000 OA
ENDBRANCH 100 102
ENDBRANCH 95 99
ENDBRANCH 75 95
ENDBRANCH 74 78
ENDBRANCH 58 74
ENDBRANCH 57 61
ENDBRANCH 37 57
ENDBRANCH 36 40
ENDBRANCH 23 36
ENDBRANCH 22 26
ENDBRANCH 1 22
TORSDOF 20
ENDMDL
MODEL 7
REMARK VINA RESULT:      -7.5     17.305     23.629
ROOT
ATOM      1  C1  NGY C   1      25.977  12.007  44.6370  0.00  0.00     0.000 C
ATOM      2  C2  NGY C   1      24.839  11.191  45.2320  0.00  0.00     0.000 C
ATOM      3  C3  NGY C   1      23.501  11.873  44.9610  0.00  0.00     0.000 C
ATOM      4  C4  NGY C   1      23.580  13.296  45.4810  0.00  0.00     0.000 C
ATOM      5  C5  NGY C   1      24.702  14.025  44.7470  0.00  0.00     0.000 C
ATOM      6  O5  NGY C   1      25.954  13.356  45.0530  0.00  0.00     0.000 O
ATOM      7   O  NGY C   1      22.464  11.133  45.5880  0.00  0.00     0.000 O
ATOM      9  HD  NGY C   1      22.356  10.681  46.3180  0.00  0.00     0.000 HD
ATOM      9   O  NGY C   1      22.348  13.977  45.2870  0.00  0.00     0.000 O
ATOM     11  HD  NGY C   1      22.240  13.524  46.0180  0.00  0.00     0.000 HD
ENDROOT
BRANCH 2 13
ATOM     11   N  NGY C   1      25.144   9.963  45.9280  0.00  0.00     0.000 N
ATOM     13  HD  NGY C   1      24.779   9.403  45.3780  0.00  0.00     0.000 HD
ATOM     13   C  NGY C   1      24.767   8.778  45.4510  0.00  0.00     0.000 C
ATOM     14   O  NGY C   1      24.021   8.693  44.4740  0.00  0.00     0.000 OA
ATOM     15   C  NGY C   1      25.317   7.568  46.1430  0.00  0.00     0.000 C
ENDBRANCH 2 13
BRANCH 5 16
ATOM     16   C  NGY C   1      24.899  15.453  45.1450  0.00  0.00     0.000 C
ATOM     17   O  NGY C   1      26.363  16.508  48.3380  0.00  0.00     0.000 OA
ATOM     18   O  NGY C   1      25.285  15.498  46.5210  0.00  0.00     0.000 O
ATOM     19   S  NGY C   1      25.961  16.835  46.9940  0.00  0.00     0.000 S
ATOM     20   O  NGY C   1      24.950  17.858  46.9580  0.00  0.00     0.000 OA
ATOM     21   O  NGY C   1      27.043  17.053  46.0470  0.00  0.00     0.000 OA
ENDBRANCH 5 16
BRANCH 1 22
ATOM     22  O4  BDP C   2      25.949  11.877  43.2940  0.00  0.00     0.000 O
BRANCH 22 26
ATOM     23  C1  BDP C   2      27.959  11.754  39.7010  0.00  0.00     0.000 C
ATOM     24  C2  BDP C   2      28.675  11.117  40.8680  0.00  0.00     0.000 C
ATOM     25  C3  BDP C   2      27.706  10.904  42.0010  0.00  0.00     0.000 C
ATOM     26  C4  BDP C   2      26.989  12.208  42.3360  0.00  0.00     0.000 C
ATOM     27  C5  BDP C   2      26.459  12.849  41.0610  0.00  0.00     0.000 C
ATOM     28  O5  BDP C   2      27.499  13.083  40.0760  0.00  0.00     0.000 O
ATOM     29   O  BDP C   2      29.139   9.800  40.5700  0.00  0.00     0.000 O
ATOM     31  HD  BDP C   2      29.111   9.224  41.2160  0.00  0.00     0.000 HD
ATOM     31   O  BDP C   2      28.466  10.463  43.1190  0.00  0.00     0.000 O
ATOM     33  HD  BDP C   2      28.438   9.886  43.7650  0.00  0.00     0.000 HD
BRANCH 27 33
ATOM     33   C  BDP C   2      25.823  14.195  41.3120  0.00  0.00     0.000 C
ATOM     34   O  BDP C   2      24.591  14.385  41.1740  0.00  0.00     0.000 OA
ATOM     35   O  BDP C   2      26.543  15.128  41.6260  0.00  0.00     0.000 OA
ENDBRANCH 27 33
BRANCH 23 36
ATOM     36  O4  SGN C   3      28.692  11.879  38.5700  0.00  0.00     0.000 O
BRANCH 36 40
ATOM     37  C1  SGN C   3      28.737  11.061  34.4770  0.00  0.00     0.000 C
ATOM     38  C2  SGN C   3      28.319  12.473  34.9180  0.00  0.00     0.000 C
ATOM     39  C3  SGN C   3      28.768  12.738  36.3480  0.00  0.00     0.000 C
ATOM     40  C4  SGN C   3      28.199  11.661  37.2460  0.00  0.00     0.000 C
ATOM     41  C5  SGN C   3      28.639  10.310  36.7260  0.00  0.00     0.000 C
ATOM     42  O5  SGN C   3      28.166  10.130  35.3820  0.00  0.00     0.000 O
ATOM     43   O  SGN C   3      28.317  14.026  36.7490  0.00  0.00     0.000 O
ATOM     45  HD  SGN C   3      28.396  13.512  37.4420  0.00  0.00     0.000 HD
BRANCH 38 47
ATOM     45   N  SGN C   3      27.401  12.822  33.8200  0.00  0.00     0.000 N
ATOM     47  HD  SGN C   3      27.508  12.537  34.6300  0.00  0.00     0.000 HD
ATOM     47   S  SGN C   3      28.126  13.654  32.6760  0.00  0.00     0.000 S
ATOM     48   O  SGN C   3      28.532  14.932  33.1430  0.00  0.00     0.000 OA
ATOM     49   O  SGN C   3      29.148  12.813  32.1440  0.00  0.00     0.000 OA
ATOM     50   O  SGN C   3      27.040  13.854  31.7190  0.00  0.00     0.000 OA
ENDBRANCH 38 47
BRANCH 41 51
ATOM     51   C  SGN C   3      28.141   9.146  37.5380  0.00  0.00     0.000 C
ATOM     52   O  SGN C   3      24.630   8.458  38.5760  0.00  0.00     0.000 OA
ATOM     53   O  SGN C   3      26.378   6.925  38.0050  0.00  0.00     0.000 OA
ATOM     54   O  SGN C   3      26.576   8.329  39.9430  0.00  0.00     0.000 OA
ATOM     55   O  SGN C   3      26.739   9.242  37.6600  0.00  0.00     0.000 O
ATOM     56   S  SGN C   3      26.015   8.135  38.6390  0.00  0.00     0.000 S
ENDBRANCH 41 51
BRANCH 37 57
ATOM     57  O4  IDS C   4      30.076  10.852  34.4420  0.00  0.00     0.000 O
BRANCH 57 61
ATOM     58  C1  IDS C   4      33.100   9.428  32.6260  0.00  0.00     0.000 C
ATOM     59  C2  IDS C   4      31.973   9.985  31.8160  0.00  0.00     0.000 C
ATOM     60  C3  IDS C   4      30.599   9.630  32.3900  0.00  0.00     0.000 C
ATOM     61  C4  IDS C   4      30.488   9.579  33.9080  0.00  0.00     0.000 C
ATOM     62  C5  IDS C   4      31.811   9.124  34.5350  0.00  0.00     0.000 C
ATOM     63  O5  IDS C   4      32.922   9.812  33.9780  0.00  0.00     0.000 O
ATOM     64   O  IDS C   4      30.302   8.344  31.8790  0.00  0.00     0.000 O
ATOM     66  HD  IDS C   4      30.292   7.759  32.5170  0.00  0.00     0.000 HD
BRANCH 59 66
ATOM     66   O  IDS C   4      32.030  11.458  31.7480  0.00  0.00     0.000 O
ATOM     67   S  IDS C   4      32.420  12.090  30.3410  0.00  0.00     0.000 S
ATOM     68   O  IDS C   4      31.318  11.706  29.4920  0.00  0.00     0.000 OA
ATOM     69   O  IDS C   4      32.532  13.514  30.5900  0.00  0.00     0.000 OA
ATOM     70   O  IDS C   4      33.664  11.466  29.9190  0.00  0.00     0.000 OA
ENDBRANCH 59 66
BRANCH 62 71
ATOM     71   C  IDS C   4      31.880   9.378  36.0290  0.00  0.00     0.000 C
ATOM     72   O  IDS C   4      32.332  10.425  36.4500  0.00  0.00     0.000 OA
ATOM     73   O  IDS C   4      31.562   8.453  36.8030  0.00  0.00     0.000 OA
ENDBRANCH 62 71
BRANCH 58 74
ATOM     74  O4  SGN C   5      33.431   8.136  32.3390  0.00  0.00     0.000 O
BRANCH 74 78
ATOM     75  C1  SGN C   5      36.485   5.292  32.1770  0.00  0.00     0.000 C
ATOM     76  C2  SGN C   5      35.823   5.495  33.5530  0.00  0.00     0.000 C
ATOM     77  C3  SGN C   5      34.518   6.290  33.4150  0.00  0.00     0.000 C
ATOM     78  C4  SGN C   5      34.706   7.533  32.5560  0.00  0.00     0.000 C
ATOM     79  C5  SGN C   5      35.346   7.142  31.2320  0.00  0.00     0.000 C
ATOM     80  O5  SGN C   5      36.635   6.522  31.4800  0.00  0.00     0.000 O
ATOM     81   O  SGN C   5      34.054   6.646  34.7130  0.00  0.00     0.000 O
ATOM     83  HD  SGN C   5      34.139   6.110  35.3890  0.00  0.00     0.000 HD
BRANCH 76 85
ATOM     83   N  SGN C   5      36.017   4.791  34.8270  0.00  0.00     0.000 N
ATOM     85  HD  SGN C   5      36.446   4.245  35.3440  0.00  0.00     0.000 HD
ATOM     85   S  SGN C   5      36.462   3.267  35.0950  0.00  0.00     0.000 S
ATOM     86   O  SGN C   5      36.569   3.019  36.4910  0.00  0.00     0.000 OA
ATOM     87   O  SGN C   5      35.579   2.436  34.3580  0.00  0.00     0.000 OA
ATOM     88   O  SGN C   5      37.847   3.385  34.4630  0.00  0.00     0.000 OA
ENDBRANCH 76 85
BRANCH 79 89
ATOM     89   C  SGN C   5      35.554   8.313  30.2930  0.00  0.00     0.000 C
ATOM     90   O  SGN C   5      36.024   7.833  29.0090  0.00  0.00     0.000 O
ATOM     91   S  SGN C   5      35.589   8.684  27.7190  0.00  0.00     0.000 S
ATOM     92   O  SGN C   5      34.157   8.819  27.7850  0.00  0.00     0.000 OA
ATOM     93   O  SGN C   5      36.266   9.952  27.8000  0.00  0.00     0.000 OA
ATOM     94   O  SGN C   5      36.036   7.870  26.6210  0.00  0.00     0.000 OA
ENDBRANCH 79 89
BRANCH 75 95
ATOM     95  O4  BDP C   6      35.647   4.468  31.4800  0.00  0.00     0.000 O
BRANCH 95 99
ATOM     96  C1  BDP C   6      36.462   1.670  28.3250  0.00  0.00     0.000 C
ATOM     97  C2  BDP C   6      37.480   1.843  29.4170  0.00  0.00     0.000 C
ATOM     98  C3  BDP C   6      36.950   2.554  30.6710  0.00  0.00     0.000 C
ATOM     99  C4  BDP C   6      36.194   3.824  30.3090  0.00  0.00     0.000 C
ATOM    100  C5  BDP C   6      35.168   3.471  29.2060  0.00  0.00     0.000 C
ATOM    101  O5  BDP C   6      35.985   2.988  28.1280  0.00  0.00     0.000 O
BRANCH 100 102
ATOM    102   C  BDP C   6      34.410   4.677  28.7110  0.00  0.00     0.000 C
ATOM    103   O  BDP C   6      33.574   5.267  29.4100  0.00  0.00     0.000 OA
ATOM    104   O  BDP C   6      34.669   5.068  27.5660  0.00  0.00     0.000 OA
ENDBRANCH 100 102
ENDBRANCH 95 99
ENDBRANCH 75 95
ENDBRANCH 74 78
ENDBRANCH 58 74
ENDBRANCH 57 61
ENDBRANCH 37 57
ENDBRANCH 36 40
ENDBRANCH 23 36
ENDBRANCH 22 26
ENDBRANCH 1 22
TORSDOF 20
ENDMDL
MODEL 8
REMARK VINA RESULT:      -7.0     29.988     35.348
ROOT
ATOM      1  C1  NGY C   1      17.828  12.565  61.2170  0.00  0.00     0.000 C
ATOM      2  C2  NGY C   1      17.541  13.202  62.5700  0.00  0.00     0.000 C
ATOM      3  C3  NGY C   1      17.382  12.125  63.6380  0.00  0.00     0.000 C
ATOM      4  C4  NGY C   1      16.316  11.150  63.1750  0.00  0.00     0.000 C
ATOM      5  C5  NGY C   1      16.763  10.525  61.8570  0.00  0.00     0.000 C
ATOM      6  O5  NGY C   1      16.878  11.581  60.8680  0.00  0.00     0.000 O
ATOM      7   O  NGY C   1      17.044  12.739  64.8730  0.00  0.00     0.000 O
ATOM      9  HD  NGY C   1      16.569  13.411  65.1420  0.00  0.00     0.000 HD
ATOM      9   O  NGY C   1      16.097  10.138  64.1460  0.00  0.00     0.000 O
ATOM     11  HD  NGY C   1      15.621  10.810  64.4150  0.00  0.00     0.000 HD
ENDROOT
BRANCH 2 13
ATOM     11   N  NGY C   1      18.543  14.240  62.6250  0.00  0.00     0.000 N
ATOM     13  HD  NGY C   1      18.137  14.791  63.1570  0.00  0.00     0.000 HD
ATOM     13   C  NGY C   1      18.364  15.345  63.3470  0.00  0.00     0.000 C
ATOM     14   O  NGY C   1      17.280  15.590  63.8800  0.00  0.00     0.000 OA
ATOM     15   C  NGY C   1      19.548  16.250  63.4970  0.00  0.00     0.000 C
ENDBRANCH 2 13
BRANCH 5 16
ATOM     16   C  NGY C   1      15.815   9.527  61.2730  0.00  0.00     0.000 C
ATOM     17   O  NGY C   1      16.315   5.895  61.4180  0.00  0.00     0.000 OA
ATOM     18   O  NGY C   1      16.422   8.233  61.3190  0.00  0.00     0.000 O
ATOM     19   S  NGY C   1      15.441   7.015  61.1750  0.00  0.00     0.000 S
ATOM     20   O  NGY C   1      14.934   7.033  59.8280  0.00  0.00     0.000 OA
ATOM     21   O  NGY C   1      14.419   7.247  62.1830  0.00  0.00     0.000 OA
ENDBRANCH 5 16
BRANCH 1 22
ATOM     22  O4  BDP C   2      19.091  12.090  61.2190  0.00  0.00     0.000 O
BRANCH 22 26
ATOM     23  C1  BDP C   2      22.625  11.254  59.2750  0.00  0.00     0.000 C
ATOM     24  C2  BDP C   2      22.091  12.654  59.0810  0.00  0.00     0.000 C
ATOM     25  C3  BDP C   2      21.029  12.937  60.1100  0.00  0.00     0.000 C
ATOM     26  C4  BDP C   2      19.963  11.847  60.0840  0.00  0.00     0.000 C
ATOM     27  C5  BDP C   2      20.625  10.476  60.1090  0.00  0.00     0.000 C
ATOM     28  O5  BDP C   2      21.566  10.288  59.0210  0.00  0.00     0.000 O
ATOM     29   O  BDP C   2      23.080  13.652  59.3330  0.00  0.00     0.000 O
ATOM     31  HD  BDP C   2      22.804  14.385  59.7030  0.00  0.00     0.000 HD
ATOM     31   O  BDP C   2      20.453  14.193  59.7740  0.00  0.00     0.000 O
ATOM     33  HD  BDP C   2      20.177  14.926  60.1440  0.00  0.00     0.000 HD
BRANCH 27 33
ATOM     33   C  BDP C   2      19.626   9.350  59.9850  0.00  0.00     0.000 C
ATOM     34   O  BDP C   2      19.661   8.344  60.7340  0.00  0.00     0.000 OA
ATOM     35   O  BDP C   2      18.784   9.415  59.1050  0.00  0.00     0.000 OA
ENDBRANCH 27 33
BRANCH 23 36
ATOM     36  O4  SGN C   3      23.679  10.921  58.4940  0.00  0.00     0.000 O
BRANCH 36 40
ATOM     37  C1  SGN C   3      27.275   8.807  58.3480  0.00  0.00     0.000 C
ATOM     38  C2  SGN C   3      26.070   8.120  59.0110  0.00  0.00     0.000 C
ATOM     39  C3  SGN C   3      24.775   8.808  58.6020  0.00  0.00     0.000 C
ATOM     40  C4  SGN C   3      24.869  10.276  58.9550  0.00  0.00     0.000 C
ATOM     41  C5  SGN C   3      26.091  10.862  58.2820  0.00  0.00     0.000 C
ATOM     42  O5  SGN C   3      27.268  10.173  58.7300  0.00  0.00     0.000 O
ATOM     43   O  SGN C   3      23.684   8.191  59.2740  0.00  0.00     0.000 O
ATOM     45  HD  SGN C   3      23.492   9.016  59.0950  0.00  0.00     0.000 HD
BRANCH 38 47
ATOM     45   N  SGN C   3      26.191   6.756  58.4680  0.00  0.00     0.000 N
ATOM     47  HD  SGN C   3      25.999   7.590  58.3340  0.00  0.00     0.000 HD
ATOM     47   S  SGN C   3      27.000   5.795  59.4420  0.00  0.00     0.000 S
ATOM     48   O  SGN C   3      28.359   6.194  59.5520  0.00  0.00     0.000 OA
ATOM     49   O  SGN C   3      26.254   5.720  60.6550  0.00  0.00     0.000 OA
ATOM     50   O  SGN C   3      26.965   4.531  58.7090  0.00  0.00     0.000 OA
ENDBRANCH 38 47
BRANCH 41 51
ATOM     51   C  SGN C   3      26.298  12.328  58.5500  0.00  0.00     0.000 C
ATOM     52   O  SGN C   3      25.800  15.149  56.1690  0.00  0.00     0.000 OA
ATOM     53   O  SGN C   3      25.446  15.072  58.5350  0.00  0.00     0.000 OA
ATOM     54   O  SGN C   3      27.654  14.819  57.6260  0.00  0.00     0.000 OA
ATOM     55   O  SGN C   3      25.948  13.057  57.3950  0.00  0.00     0.000 O
ATOM     56   S  SGN C   3      26.241  14.676  57.4360  0.00  0.00     0.000 S
ENDBRANCH 41 51
BRANCH 37 57
ATOM     57  O4  IDS C   4      27.288   8.745  56.9940  0.00  0.00     0.000 O
BRANCH 57 61
ATOM     58  C1  IDS C   4      29.881   7.471  54.5190  0.00  0.00     0.000 C
ATOM     59  C2  IDS C   4      30.117   7.258  55.9810  0.00  0.00     0.000 C
ATOM     60  C3  IDS C   4      29.711   8.466  56.8280  0.00  0.00     0.000 C
ATOM     61  C4  IDS C   4      28.485   9.241  56.3650  0.00  0.00     0.000 C
ATOM     62  C5  IDS C   4      28.360   9.198  54.8380  0.00  0.00     0.000 C
ATOM     63  O5  IDS C   4      28.537   7.883  54.3310  0.00  0.00     0.000 O
ATOM     64   O  IDS C   4      30.827   9.336  56.7960  0.00  0.00     0.000 O
ATOM     66  HD  IDS C   4      30.633  10.061  56.3650  0.00  0.00     0.000 HD
BRANCH 59 66
ATOM     66   O  IDS C   4      29.347   6.109  56.4930  0.00  0.00     0.000 O
ATOM     67   S  IDS C   4      30.177   4.799  56.8510  0.00  0.00     0.000 S
ATOM     68   O  IDS C   4      31.009   5.227  57.9490  0.00  0.00     0.000 OA
ATOM     69   O  IDS C   4      29.178   3.806  57.1920  0.00  0.00     0.000 OA
ATOM     70   O  IDS C   4      30.968   4.458  55.6790  0.00  0.00     0.000 OA
ENDBRANCH 59 66
BRANCH 62 71
ATOM     71   C  IDS C   4      27.000   9.648  54.3400  0.00  0.00     0.000 C
ATOM     72   O  IDS C   4      26.444   9.037  53.4480  0.00  0.00     0.000 OA
ATOM     73   O  IDS C   4      26.522  10.708  54.7920  0.00  0.00     0.000 OA
ENDBRANCH 62 71
BRANCH 58 74
ATOM     74  O4  SGN C   5      30.878   8.132  53.8650  0.00  0.00     0.000 O
BRANCH 74 78
ATOM     75  C1  SGN C   5      33.065   8.441  50.3200  0.00  0.00     0.000 C
ATOM     76  C2  SGN C   5      31.797   9.312  50.4110  0.00  0.00     0.000 C
ATOM     77  C3  SGN C   5      31.284   9.374  51.8550  0.00  0.00     0.000 C
ATOM     78  C4  SGN C   5      31.209   7.990  52.4840  0.00  0.00     0.000 C
ATOM     79  C5  SGN C   5      32.549   7.287  52.3240  0.00  0.00     0.000 C
ATOM     80  O5  SGN C   5      32.867   7.164  50.9130  0.00  0.00     0.000 O
ATOM     81   O  SGN C   5      30.004   9.997  51.8640  0.00  0.00     0.000 O
ATOM     83  HD  SGN C   5      29.814  10.654  51.3320  0.00  0.00     0.000 HD
BRANCH 76 85
ATOM     83   N  SGN C   5      32.436  10.481  49.7940  0.00  0.00     0.000 N
ATOM     85  HD  SGN C   5      32.407  11.248  49.3920  0.00  0.00     0.000 HD
ATOM     85   S  SGN C   5      32.030  11.282  48.4570  0.00  0.00     0.000 S
ATOM     86   O  SGN C   5      32.903  12.386  48.2540  0.00  0.00     0.000 OA
ATOM     87   O  SGN C   5      31.940  10.329  47.4090  0.00  0.00     0.000 OA
ATOM     88   O  SGN C   5      30.668  11.758  48.9560  0.00  0.00     0.000 OA
ENDBRANCH 76 85
BRANCH 79 89
ATOM     89   C  SGN C   5      32.582   5.904  52.9430  0.00  0.00     0.000 C
ATOM     90   O  SGN C   5      33.886   5.306  52.7360  0.00  0.00     0.000 O
ATOM     91   S  SGN C   5      34.403   4.295  53.8700  0.00  0.00     0.000 S
ATOM     92   O  SGN C   5      34.292   4.997  55.1210  0.00  0.00     0.000 OA
ATOM     93   O  SGN C   5      33.559   3.130  53.8150  0.00  0.00     0.000 OA
ATOM     94   O  SGN C   5      35.762   4.030  53.4810  0.00  0.00     0.000 OA
ENDBRANCH 79 89
BRANCH 75 95
ATOM     95  O4  BDP C   6      34.032   9.119  51.0050  0.00  0.00     0.000 O
BRANCH 95 99
ATOM     96  C1  BDP C   6      38.224   9.223  50.0740  0.00  0.00     0.000 C
ATOM     97  C2  BDP C   6      37.270   8.680  49.0480  0.00  0.00     0.000 C
ATOM     98  C3  BDP C   6      35.797   9.031  49.3040  0.00  0.00     0.000 C
ATOM     99  C4  BDP C   6      35.402   8.742  50.7440  0.00  0.00     0.000 C
ATOM    100  C5  BDP C   6      36.456   9.394  51.6690  0.00  0.00     0.000 C
ATOM    101  O5  BDP C   6      37.681   8.745  51.2910  0.00  0.00     0.000 O
BRANCH 100 102
ATOM    102   C  BDP C   6      36.209   9.105  53.1280  0.00  0.00     0.000 C
ATOM    103   O  BDP C   6      36.359   9.965  54.0080  0.00  0.00     0.000 OA
ATOM    104   O  BDP C   6      35.832   7.963  53.4150  0.00  0.00     0.000 OA
ENDBRANCH 100 102
ENDBRANCH 95 99
ENDBRANCH 75 95
ENDBRANCH 74 78
ENDBRANCH 58 74
ENDBRANCH 57 61
ENDBRANCH 37 57
ENDBRANCH 36 40
ENDBRANCH 23 36
ENDBRANCH 22 26
ENDBRANCH 1 22
TORSDOF 20
ENDMDL
MODEL 9
REMARK VINA RESULT:      -6.9     29.145     37.437
ROOT
ATOM      1  C1  NGY C   1      18.503   5.337  62.0780  0.00  0.00     0.000 C
ATOM      2  C2  NGY C   1      17.390   6.355  62.2870  0.00  0.00     0.000 C
ATOM      3  C3  NGY C   1      17.547   7.039  63.6410  0.00  0.00     0.000 C
ATOM      4  C4  NGY C   1      17.614   5.967  64.7120  0.00  0.00     0.000 C
ATOM      5  C5  NGY C   1      18.816   5.069  64.4310  0.00  0.00     0.000 C
ATOM      6  O5  NGY C   1      18.611   4.423  63.1480  0.00  0.00     0.000 O
ATOM      7   O  NGY C   1      16.459   7.929  63.8440  0.00  0.00     0.000 O
ATOM      9  HD  NGY C   1      15.612   7.951  63.6650  0.00  0.00     0.000 HD
ATOM      9   O  NGY C   1      17.728   6.544  66.0040  0.00  0.00     0.000 O
ATOM     11  HD  NGY C   1      16.881   6.566  65.8240  0.00  0.00     0.000 HD
ENDROOT
BRANCH 2 13
ATOM     11   N  NGY C   1      17.416   7.147  61.0800  0.00  0.00     0.000 N
ATOM     13  HD  NGY C   1      16.570   7.325  61.0180  0.00  0.00     0.000 HD
ATOM     13   C  NGY C   1      16.304   7.666  60.5620  0.00  0.00     0.000 C
ATOM     14   O  NGY C   1      15.194   7.373  61.0110  0.00  0.00     0.000 OA
ATOM     15   C  NGY C   1      16.477   8.637  59.4340  0.00  0.00     0.000 C
ENDBRANCH 2 13
BRANCH 5 16
ATOM     16   C  NGY C   1      19.024   3.960  65.4120  0.00  0.00     0.000 C
ATOM     17   O  NGY C   1      16.813   1.048  65.7130  0.00  0.00     0.000 OA
ATOM     18   O  NGY C   1      17.870   3.115  65.4020  0.00  0.00     0.000 O
ATOM     19   S  NGY C   1      18.072   1.681  66.0130  0.00  0.00     0.000 S
ATOM     20   O  NGY C   1      18.279   1.847  67.4280  0.00  0.00     0.000 OA
ATOM     21   O  NGY C   1      19.230   1.146  65.3150  0.00  0.00     0.000 OA
ENDBRANCH 5 16
BRANCH 1 22
ATOM     22  O4  BDP C   2      19.656   5.998  61.8410  0.00  0.00     0.000 O
BRANCH 22 26
ATOM     23  C1  BDP C   2      23.313   6.300  59.9700  0.00  0.00     0.000 C
ATOM     24  C2  BDP C   2      22.141   6.007  59.0630  0.00  0.00     0.000 C
ATOM     25  C3  BDP C   2      20.854   6.283  59.7950  0.00  0.00     0.000 C
ATOM     26  C4  BDP C   2      20.828   5.532  61.1210  0.00  0.00     0.000 C
ATOM     27  C5  BDP C   2      22.133   5.763  61.8720  0.00  0.00     0.000 C
ATOM     28  O5  BDP C   2      23.300   5.381  61.0990  0.00  0.00     0.000 O
ATOM     29   O  BDP C   2      22.087   6.888  57.9410  0.00  0.00     0.000 O
ATOM     31  HD  BDP C   2      21.299   7.122  57.6700  0.00  0.00     0.000 HD
ATOM     31   O  BDP C   2      19.797   5.832  58.9570  0.00  0.00     0.000 O
ATOM     33  HD  BDP C   2      19.009   6.066  58.6850  0.00  0.00     0.000 HD
BRANCH 27 33
ATOM     33   C  BDP C   2      22.211   4.966  63.1520  0.00  0.00     0.000 C
ATOM     34   O  BDP C   2      22.532   5.492  64.2450  0.00  0.00     0.000 OA
ATOM     35   O  BDP C   2      21.988   3.768  63.1050  0.00  0.00     0.000 OA
ENDBRANCH 27 33
BRANCH 23 36
ATOM     36  O4  SGN C   3      24.532   6.216  59.3880  0.00  0.00     0.000 O
BRANCH 36 40
ATOM     37  C1  SGN C   3      28.232   8.095  58.9380  0.00  0.00     0.000 C
ATOM     38  C2  SGN C   3      28.072   7.104  60.1020  0.00  0.00     0.000 C
ATOM     39  C3  SGN C   3      26.866   6.205  59.8730  0.00  0.00     0.000 C
ATOM     40  C4  SGN C   3      25.640   7.072  59.6790  0.00  0.00     0.000 C
ATOM     41  C5  SGN C   3      25.895   8.027  58.5340  0.00  0.00     0.000 C
ATOM     42  O5  SGN C   3      27.034   8.848  58.8320  0.00  0.00     0.000 O
ATOM     43   O  SGN C   3      26.706   5.341  60.9910  0.00  0.00     0.000 O
ATOM     45  HD  SGN C   3      25.940   5.476  60.6120  0.00  0.00     0.000 HD
BRANCH 38 47
ATOM     45   N  SGN C   3      29.215   7.909  60.5700  0.00  0.00     0.000 N
ATOM     47  HD  SGN C   3      28.373   7.868  60.3700  0.00  0.00     0.000 HD
ATOM     47   S  SGN C   3      30.449   7.002  60.9950  0.00  0.00     0.000 S
ATOM     48   O  SGN C   3      30.146   6.219  62.1410  0.00  0.00     0.000 OA
ATOM     49   O  SGN C   3      30.858   6.294  59.8260  0.00  0.00     0.000 OA
ATOM     50   O  SGN C   3      31.434   8.007  61.3890  0.00  0.00     0.000 OA
ENDBRANCH 38 47
BRANCH 41 51
ATOM     51   C  SGN C   3      24.743   8.947  58.2330  0.00  0.00     0.000 C
ATOM     52   O  SGN C   3      22.633  10.795  60.6840  0.00  0.00     0.000 OA
ATOM     53   O  SGN C   3      23.330  11.436  58.4850  0.00  0.00     0.000 OA
ATOM     54   O  SGN C   3      21.877   9.550  58.8000  0.00  0.00     0.000 OA
ATOM     55   O  SGN C   3      24.254   9.476  59.4450  0.00  0.00     0.000 O
ATOM     56   S  SGN C   3      22.895  10.400  59.3420  0.00  0.00     0.000 S
ENDBRANCH 41 51
BRANCH 37 57
ATOM     57  O4  IDS C   4      28.479   7.520  57.7350  0.00  0.00     0.000 O
BRANCH 57 61
ATOM     58  C1  IDS C   4      30.752   6.937  54.7410  0.00  0.00     0.000 C
ATOM     59  C2  IDS C   4      31.363   7.000  56.1050  0.00  0.00     0.000 C
ATOM     60  C3  IDS C   4      30.736   8.084  56.9850  0.00  0.00     0.000 C
ATOM     61  C4  IDS C   4      29.242   8.321  56.8130  0.00  0.00     0.000 C
ATOM     62  C5  IDS C   4      28.812   8.051  55.3670  0.00  0.00     0.000 C
ATOM     63  O5  IDS C   4      29.345   6.829  54.8770  0.00  0.00     0.000 O
ATOM     64   O  IDS C   4      31.418   9.277  56.6480  0.00  0.00     0.000 O
ATOM     66  HD  IDS C   4      30.882   9.832  56.2530  0.00  0.00     0.000 HD
BRANCH 59 66
ATOM     66   O  IDS C   4      31.200   5.726  56.8310  0.00  0.00     0.000 O
ATOM     67   S  IDS C   4      32.483   4.788  56.9170  0.00  0.00     0.000 S
ATOM     68   O  IDS C   4      33.407   5.568  57.7060  0.00  0.00     0.000 OA
ATOM     69   O  IDS C   4      32.014   3.572  57.5510  0.00  0.00     0.000 OA
ATOM     70   O  IDS C   4      32.967   4.595  55.5590  0.00  0.00     0.000 OA
ENDBRANCH 59 66
BRANCH 62 71
ATOM     71   C  IDS C   4      27.308   7.935  55.2060  0.00  0.00     0.000 C
ATOM     72   O  IDS C   4      26.795   6.845  55.0410  0.00  0.00     0.000 OA
ATOM     73   O  IDS C   4      26.634   8.983  55.1430  0.00  0.00     0.000 OA
ENDBRANCH 62 71
BRANCH 58 74
ATOM     74  O4  SGN C   5      31.268   7.819  53.8380  0.00  0.00     0.000 O
BRANCH 74 78
ATOM     75  C1  SGN C   5      32.368   8.487  49.8650  0.00  0.00     0.000 C
ATOM     76  C2  SGN C   5      30.875   8.198  50.1130  0.00  0.00     0.000 C
ATOM     77  C3  SGN C   5      30.542   8.312  51.6070  0.00  0.00     0.000 C
ATOM     78  C4  SGN C   5      31.540   7.545  52.4640  0.00  0.00     0.000 C
ATOM     79  C5  SGN C   5      32.954   7.974  52.1030  0.00  0.00     0.000 C
ATOM     80  O5  SGN C   5      33.202   7.695  50.6990  0.00  0.00     0.000 O
ATOM     81   O  SGN C   5      29.221   7.827  51.8230  0.00  0.00     0.000 O
ATOM     83  HD  SGN C   5      28.587   7.964  51.2490  0.00  0.00     0.000 HD
BRANCH 76 85
ATOM     83   N  SGN C   5      29.932   8.020  49.0030  0.00  0.00     0.000 N
ATOM     85  HD  SGN C   5      29.689   8.125  48.1780  0.00  0.00     0.000 HD
ATOM     85   S  SGN C   5      29.498   9.060  47.8520  0.00  0.00     0.000 S
ATOM     86   O  SGN C   5      28.586   8.450  46.9490  0.00  0.00     0.000 OA
ATOM     87   O  SGN C   5      29.067  10.247  48.5010  0.00  0.00     0.000 OA
ATOM     88   O  SGN C   5      30.879   9.190  47.2160  0.00  0.00     0.000 OA
ENDBRANCH 76 85
BRANCH 79 89
ATOM     89   C  SGN C   5      34.024   7.281  52.9230  0.00  0.00     0.000 C
ATOM     90   O  SGN C   5      33.962   5.851  52.6990  0.00  0.00     0.000 O
ATOM     91   S  SGN C   5      35.348   5.047  52.7930  0.00  0.00     0.000 S
ATOM     92   O  SGN C   5      36.270   5.721  51.9160  0.00  0.00     0.000 OA
ATOM     93   O  SGN C   5      35.769   5.089  54.1700  0.00  0.00     0.000 OA
ATOM     94   O  SGN C   5      34.995   3.727  52.3470  0.00  0.00     0.000 OA
ENDBRANCH 79 89
BRANCH 75 95
ATOM     95  O4  BDP C   6      32.545   9.809  50.1620  0.00  0.00     0.000 O
BRANCH 95 99
ATOM     96  C1  BDP C   6      35.635  12.543  48.9680  0.00  0.00     0.000 C
ATOM     97  C2  BDP C   6      35.210  11.469  48.0060  0.00  0.00     0.000 C
ATOM     98  C3  BDP C   6      33.871  10.801  48.3530  0.00  0.00     0.000 C
ATOM     99  C4  BDP C   6      33.821  10.389  49.8170  0.00  0.00     0.000 C
ATOM    100  C5  BDP C   6      34.249  11.606  50.6700  0.00  0.00     0.000 C
ATOM    101  O5  BDP C   6      35.585  11.882  50.2180  0.00  0.00     0.000 O
BRANCH 100 102
ATOM    102   C  BDP C   6      34.313  11.290  52.1430  0.00  0.00     0.000 C
ATOM    103   O  BDP C   6      35.270  10.688  52.6500  0.00  0.00     0.000 OA
ATOM    104   O  BDP C   6      33.364  11.672  52.8380  0.00  0.00     0.000 OA
ENDBRANCH 100 102
ENDBRANCH 95 99
ENDBRANCH 75 95
ENDBRANCH 74 78
ENDBRANCH 58 74
ENDBRANCH 57 61
ENDBRANCH 37 57
ENDBRANCH 36 40
ENDBRANCH 23 36
ENDBRANCH 22 26
ENDBRANCH 1 22
TORSDOF 20
ENDMDL
MODEL 10
REMARK VINA RESULT:      -6.9     19.974     32.344
ROOT
ATOM      1  C1  NGY C   1      30.369   5.263  57.2170  0.00  0.00     0.000 C
ATOM      2  C2  NGY C   1      29.855   5.915  58.4930  0.00  0.00     0.000 C
ATOM      3  C3  NGY C   1      31.005   6.565  59.2550  0.00  0.00     0.000 C
ATOM      4  C4  NGY C   1      32.077   5.517  59.4840  0.00  0.00     0.000 C
ATOM      5  C5  NGY C   1      32.561   5.007  58.1300  0.00  0.00     0.000 C
ATOM      6  O5  NGY C   1      31.442   4.377  57.4540  0.00  0.00     0.000 O
ATOM      7   O  NGY C   1      30.514   7.102  60.4740  0.00  0.00     0.000 O
ATOM      9  HD  NGY C   1      29.924   6.890  61.0720  0.00  0.00     0.000 HD
ATOM      9   O  NGY C   1      33.165   6.055  60.2220  0.00  0.00     0.000 O
ATOM     11  HD  NGY C   1      32.575   5.842  60.8190  0.00  0.00     0.000 HD
ENDROOT
BRANCH 2 13
ATOM     11   N  NGY C   1      28.816   6.847  58.1240  0.00  0.00     0.000 N
ATOM     13  HD  NGY C   1      28.239   6.657  58.7410  0.00  0.00     0.000 HD
ATOM     13   C  NGY C   1      27.675   6.928  58.8070  0.00  0.00     0.000 C
ATOM     14   O  NGY C   1      27.403   6.114  59.6920  0.00  0.00     0.000 OA
ATOM     15   C  NGY C   1      26.765   8.068  58.4640  0.00  0.00     0.000 C
ENDBRANCH 2 13
BRANCH 5 16
ATOM     16   C  NGY C   1      33.634   3.967  58.1900  0.00  0.00     0.000 C
ATOM     17   O  NGY C   1      33.033   0.449  59.0400  0.00  0.00     0.000 OA
ATOM     18   O  NGY C   1      33.086   2.773  58.7570  0.00  0.00     0.000 O
ATOM     19   S  NGY C   1      33.905   1.458  58.4950  0.00  0.00     0.000 S
ATOM     20   O  NGY C   1      35.138   1.571  59.2290  0.00  0.00     0.000 OA
ATOM     21   O  NGY C   1      34.089   1.422  57.0530  0.00  0.00     0.000 OA
ENDBRANCH 5 16
BRANCH 1 22
ATOM     22  O4  BDP C   2      30.681   6.231  56.3300  0.00  0.00     0.000 O
BRANCH 22 26
ATOM     23  C1  BDP C   2      30.494   7.636  52.4630  0.00  0.00     0.000 C
ATOM     24  C2  BDP C   2      29.331   6.778  52.8990  0.00  0.00     0.000 C
ATOM     25  C3  BDP C   2      29.336   6.642  54.3990  0.00  0.00     0.000 C
ATOM     26  C4  BDP C   2      30.698   6.151  54.8800  0.00  0.00     0.000 C
ATOM     27  C5  BDP C   2      31.803   6.981  54.2390  0.00  0.00     0.000 C
ATOM     28  O5  BDP C   2      31.745   6.967  52.7900  0.00  0.00     0.000 O
ATOM     29   O  BDP C   2      28.070   7.387  52.6210  0.00  0.00     0.000 O
ATOM     31  HD  BDP C   2      27.439   7.253  53.1990  0.00  0.00     0.000 HD
ATOM     31   O  BDP C   2      28.329   5.696  54.7330  0.00  0.00     0.000 O
ATOM     33  HD  BDP C   2      27.698   5.562  55.3110  0.00  0.00     0.000 HD
BRANCH 27 33
ATOM     33   C  BDP C   2      33.182   6.482  54.5990  0.00  0.00     0.000 C
ATOM     34   O  BDP C   2      34.106   7.262  54.9320  0.00  0.00     0.000 OA
ATOM     35   O  BDP C   2      33.403   5.284  54.5270  0.00  0.00     0.000 OA
ENDBRANCH 27 33
BRANCH 23 36
ATOM     36  O4  SGN C   3      30.526   7.942  51.1450  0.00  0.00     0.000 O
BRANCH 36 40
ATOM     37  C1  SGN C   3      30.972  11.111  48.4630  0.00  0.00     0.000 C
ATOM     38  C2  SGN C   3      32.177  10.180  48.6760  0.00  0.00     0.000 C
ATOM     39  C3  SGN C   3      31.733   8.871  49.3100  0.00  0.00     0.000 C
ATOM     40  C4  SGN C   3      31.004   9.176  50.6010  0.00  0.00     0.000 C
ATOM     41  C5  SGN C   3      29.853  10.112  50.3030  0.00  0.00     0.000 C
ATOM     42  O5  SGN C   3      30.354  11.326  49.7220  0.00  0.00     0.000 O
ATOM     43   O  SGN C   3      32.873   8.055  49.5500  0.00  0.00     0.000 O
ATOM     45  HD  SGN C   3      32.249   7.863  50.1190  0.00  0.00     0.000 HD
BRANCH 38 47
ATOM     45   N  SGN C   3      33.424  10.937  48.4620  0.00  0.00     0.000 N
ATOM     47  HD  SGN C   3      32.898  10.518  49.0090  0.00  0.00     0.000 HD
ATOM     47   S  SGN C   3      33.793  11.056  46.9210  0.00  0.00     0.000 S
ATOM     48   O  SGN C   3      34.113   9.789  46.3650  0.00  0.00     0.000 OA
ATOM     49   O  SGN C   3      32.730  11.777  46.3010  0.00  0.00     0.000 OA
ATOM     50   O  SGN C   3      35.022  11.846  46.9700  0.00  0.00     0.000 OA
ENDBRANCH 38 47
BRANCH 41 51
ATOM     51   C  SGN C   3      29.040  10.492  51.5100  0.00  0.00     0.000 C
ATOM     52   O  SGN C   3      30.315  11.494  54.8640  0.00  0.00     0.000 OA
ATOM     53   O  SGN C   3      28.367  12.239  53.6890  0.00  0.00     0.000 OA
ATOM     54   O  SGN C   3      28.556   9.955  54.4040  0.00  0.00     0.000 OA
ATOM     55   O  SGN C   3      29.916  10.850  52.5550  0.00  0.00     0.000 O
ATOM     56   S  SGN C   3      29.222  11.163  54.0140  0.00  0.00     0.000 S
ENDBRANCH 41 51
BRANCH 37 57
ATOM     57  O4  IDS C   4      30.034  10.635  47.6070  0.00  0.00     0.000 O
BRANCH 57 61
ATOM     58  C1  IDS C   4      27.330  11.583  45.1040  0.00  0.00     0.000 C
ATOM     59  C2  IDS C   4      28.453  12.541  45.3460  0.00  0.00     0.000 C
ATOM     60  C3  IDS C   4      28.852  12.626  46.8210  0.00  0.00     0.000 C
ATOM     61  C4  IDS C   4      28.774  11.333  47.6230  0.00  0.00     0.000 C
ATOM     62  C5  IDS C   4      27.645  10.437  47.1010  0.00  0.00     0.000 C
ATOM     63  O5  IDS C   4      27.666  10.334  45.6850  0.00  0.00     0.000 O
ATOM     64   O  IDS C   4      27.958  13.560  47.3960  0.00  0.00     0.000 O
ATOM     66  HD  IDS C   4      27.431  13.169  47.9600  0.00  0.00     0.000 HD
BRANCH 59 66
ATOM     66   O  IDS C   4      29.668  12.152  44.6060  0.00  0.00     0.000 O
ATOM     67   S  IDS C   4      30.144  13.138  43.4510  0.00  0.00     0.000 S
ATOM     68   O  IDS C   4      30.497  14.339  44.1700  0.00  0.00     0.000 OA
ATOM     69   O  IDS C   4      31.254  12.458  42.8140  0.00  0.00     0.000 OA
ATOM     70   O  IDS C   4      29.004  13.354  42.5730  0.00  0.00     0.000 OA
ENDBRANCH 59 66
BRANCH 62 71
ATOM     71   C  IDS C   4      27.730   9.013  47.6160  0.00  0.00     0.000 C
ATOM     72   O  IDS C   4      27.074   8.674  48.5820  0.00  0.00     0.000 OA
ATOM     73   O  IDS C   4      28.559   8.241  47.0940  0.00  0.00     0.000 OA
ENDBRANCH 62 71
BRANCH 58 74
ATOM     74  O4  SGN C   5      26.083  12.096  45.3030  0.00  0.00     0.000 O
BRANCH 74 78
ATOM     75  C1  SGN C   5      22.064  11.983  44.1710  0.00  0.00     0.000 C
ATOM     76  C2  SGN C   5      22.504  10.933  45.2100  0.00  0.00     0.000 C
ATOM     77  C3  SGN C   5      23.879  11.288  45.7910  0.00  0.00     0.000 C
ATOM     78  C4  SGN C   5      24.880  11.626  44.6950  0.00  0.00     0.000 C
ATOM     79  C5  SGN C   5      24.291  12.692  43.7820  0.00  0.00     0.000 C
ATOM     80  O5  SGN C   5      23.065  12.195  43.1840  0.00  0.00     0.000 O
ATOM     81   O  SGN C   5      24.346  10.193  46.5730  0.00  0.00     0.000 O
ATOM     83  HD  SGN C   5      23.807   9.717  47.0550  0.00  0.00     0.000 HD
BRANCH 76 85
ATOM     83   N  SGN C   5      21.166  10.329  45.1940  0.00  0.00     0.000 N
ATOM     85  HD  SGN C   5      20.347  10.270  45.4710  0.00  0.00     0.000 HD
ATOM     85   S  SGN C   5      20.187   9.979  46.4240  0.00  0.00     0.000 S
ATOM     86   O  SGN C   5      18.960   9.442  45.9460  0.00  0.00     0.000 OA
ATOM     87   O  SGN C   5      20.928   9.185  47.3370  0.00  0.00     0.000 OA
ATOM     88   O  SGN C   5      19.995  11.418  46.8970  0.00  0.00     0.000 OA
ENDBRANCH 76 85
BRANCH 79 89
ATOM     89   C  SGN C   5      25.226  13.116  42.6670  0.00  0.00     0.000 C
ATOM     90   O  SGN C   5      24.542  14.029  41.7740  0.00  0.00     0.000 O
ATOM     91   S  SGN C   5      25.443  15.146  41.0560  0.00  0.00     0.000 S
ATOM     92   O  SGN C   5      26.172  15.814  42.1030  0.00  0.00     0.000 OA
ATOM     93   O  SGN C   5      26.310  14.462  40.1320  0.00  0.00     0.000 OA
ATOM     94   O  SGN C   5      24.473  15.986  40.4080  0.00  0.00     0.000 OA
ENDBRANCH 79 89
BRANCH 75 95
ATOM     95  O4  BDP C   6      21.860  13.137  44.8720  0.00  0.00     0.000 O
BRANCH 95 99
ATOM     96  C1  BDP C   6      18.855  16.142  44.2490  0.00  0.00     0.000 C
ATOM     97  C2  BDP C   6      18.607  14.755  43.7270  0.00  0.00     0.000 C
ATOM     98  C3  BDP C   6      19.533  13.681  44.3180  0.00  0.00     0.000 C
ATOM     99  C4  BDP C   6      20.989  14.120  44.2700  0.00  0.00     0.000 C
ATOM    100  C5  BDP C   6      21.080  15.542  44.8710  0.00  0.00     0.000 C
ATOM    101  O5  BDP C   6      20.238  16.325  44.0100  0.00  0.00     0.000 O
BRANCH 100 102
ATOM    102   C  BDP C   6      22.473  16.114  44.8040  0.00  0.00     0.000 C
ATOM    103   O  BDP C   6      23.368  15.771  45.5910  0.00  0.00     0.000 OA
ATOM    104   O  BDP C   6      22.696  16.941  43.9130  0.00  0.00     0.000 OA
ENDBRANCH 100 102
ENDBRANCH 95 99
ENDBRANCH 75 95
ENDBRANCH 74 78
ENDBRANCH 58 74
ENDBRANCH 57 61
ENDBRANCH 37 57
ENDBRANCH 36 40
ENDBRANCH 23 36
ENDBRANCH 22 26
ENDBRANCH 1 22
TORSDOF 20
ENDMDL
MODEL 11
REMARK VINA RESULT:      -6.8     28.964     36.554
ROOT
ATOM      1  C1  NGY C   1      30.965   7.184  52.0050  0.00  0.00     0.000 C
ATOM      2  C2  NGY C   1      32.423   6.769  52.1400  0.00  0.00     0.000 C
ATOM      3  C3  NGY C   1      33.339   7.898  51.6760  0.00  0.00     0.000 C
ATOM      4  C4  NGY C   1      32.935   8.289  50.2680  0.00  0.00     0.000 C
ATOM      5  C5  NGY C   1      31.484   8.760  50.2870  0.00  0.00     0.000 C
ATOM      6  O5  NGY C   1      30.651   7.650  50.7100  0.00  0.00     0.000 O
ATOM      7   O  NGY C   1      34.689   7.461  51.7430  0.00  0.00     0.000 O
ATOM      9  HD  NGY C   1      35.129   6.728  51.6070  0.00  0.00     0.000 HD
ATOM      9   O  NGY C   1      33.776   9.317  49.7650  0.00  0.00     0.000 O
ATOM     11  HD  NGY C   1      34.216   8.584  49.6290  0.00  0.00     0.000 HD
ENDROOT
BRANCH 2 13
ATOM     11   N  NGY C   1      33.212   5.629  52.5450  0.00  0.00     0.000 N
ATOM     13  HD  NGY C   1      33.094   5.682  53.4010  0.00  0.00     0.000 HD
ATOM     13   C  NGY C   1      33.342   5.290  53.8270  0.00  0.00     0.000 C
ATOM     14   O  NGY C   1      32.915   6.018  54.7250  0.00  0.00     0.000 OA
ATOM     15   C  NGY C   1      34.005   3.977  54.1120  0.00  0.00     0.000 C
ENDBRANCH 2 13
BRANCH 5 16
ATOM     16   C  NGY C   1      30.939   9.193  48.9630  0.00  0.00     0.000 C
ATOM     17   O  NGY C   1      27.738  10.933  48.5340  0.00  0.00     0.000 OA
ATOM     18   O  NGY C   1      29.591   9.638  49.1440  0.00  0.00     0.000 O
ATOM     19   S  NGY C   1      29.010  10.532  47.9900  0.00  0.00     0.000 S
ATOM     20   O  NGY C   1      28.869   9.691  46.8300  0.00  0.00     0.000 OA
ATOM     21   O  NGY C   1      29.988  11.594  47.8220  0.00  0.00     0.000 OA
ENDBRANCH 5 16
BRANCH 1 22
ATOM     22  O4  BDP C   2      30.679   8.087  52.9660  0.00  0.00     0.000 O
BRANCH 22 26
ATOM     23  C1  BDP C   2      27.518   9.023  55.4350  0.00  0.00     0.000 C
ATOM     24  C2  BDP C   2      27.232   7.982  54.3780  0.00  0.00     0.000 C
ATOM     25  C3  BDP C   2      28.528   7.475  53.8040  0.00  0.00     0.000 C
ATOM     26  C4  BDP C   2      29.385   8.641  53.3230  0.00  0.00     0.000 C
ATOM     27  C5  BDP C   2      29.461   9.708  54.4080  0.00  0.00     0.000 C
ATOM     28  O5  BDP C   2      28.153  10.180  54.8220  0.00  0.00     0.000 O
ATOM     29   O  BDP C   2      26.622   6.811  54.9200  0.00  0.00     0.000 O
ATOM     31  HD  BDP C   2      26.847   6.056  54.5600  0.00  0.00     0.000 HD
ATOM     31   O  BDP C   2      28.193   6.632  52.7090  0.00  0.00     0.000 O
ATOM     33  HD  BDP C   2      28.418   5.877  52.3490  0.00  0.00     0.000 HD
BRANCH 27 33
ATOM     33   C  BDP C   2      30.216  10.936  53.9580  0.00  0.00     0.000 C
ATOM     34   O  BDP C   2      31.468  10.959  53.8890  0.00  0.00     0.000 OA
ATOM     35   O  BDP C   2      29.581  11.942  53.6900  0.00  0.00     0.000 OA
ENDBRANCH 27 33
BRANCH 23 36
ATOM     36  O4  SGN C   3      26.439   9.464  56.1220  0.00  0.00     0.000 O
BRANCH 36 40
ATOM     37  C1  SGN C   3      25.057  11.104  59.7040  0.00  0.00     0.000 C
ATOM     38  C2  SGN C   3      25.947  11.985  58.8120  0.00  0.00     0.000 C
ATOM     39  C3  SGN C   3      25.996  11.430  57.3960  0.00  0.00     0.000 C
ATOM     40  C4  SGN C   3      26.473   9.994  57.4500  0.00  0.00     0.000 C
ATOM     41  C5  SGN C   3      25.557   9.210  58.3630  0.00  0.00     0.000 C
ATOM     42  O5  SGN C   3      25.577   9.785  59.6800  0.00  0.00     0.000 O
ATOM     43   O  SGN C   3      26.872  12.228  56.6090  0.00  0.00     0.000 O
ATOM     45  HD  SGN C   3      26.848  11.421  56.2970  0.00  0.00     0.000 HD
BRANCH 38 47
ATOM     45   N  SGN C   3      26.012  12.629  60.1350  0.00  0.00     0.000 N
ATOM     47  HD  SGN C   3      26.151  11.927  59.6480  0.00  0.00     0.000 HD
ATOM     47   S  SGN C   3      25.835  14.206  60.0410  0.00  0.00     0.000 S
ATOM     48   O  SGN C   3      26.925  14.810  59.3610  0.00  0.00     0.000 OA
ATOM     49   O  SGN C   3      24.535  14.440  59.5020  0.00  0.00     0.000 OA
ATOM     50   O  SGN C   3      25.913  14.599  61.4470  0.00  0.00     0.000 OA
ENDBRANCH 38 47
BRANCH 41 51
ATOM     51   C  SGN C   3      25.921   7.757  58.5010  0.00  0.00     0.000 C
ATOM     52   O  SGN C   3      23.876   4.814  57.4840  0.00  0.00     0.000 OA
ATOM     53   O  SGN C   3      26.253   5.099  57.4630  0.00  0.00     0.000 OA
ATOM     54   O  SGN C   3      25.046   5.101  59.5390  0.00  0.00     0.000 OA
ATOM     55   O  SGN C   3      24.888   6.974  57.9460  0.00  0.00     0.000 O
ATOM     56   S  SGN C   3      25.030   5.344  58.1270  0.00  0.00     0.000 S
ENDBRANCH 41 51
BRANCH 37 57
ATOM     57  O4  IDS C   4      23.755  11.053  59.3290  0.00  0.00     0.000 O
BRANCH 57 61
ATOM     58  C1  IDS C   4      20.038  11.682  59.8380  0.00  0.00     0.000 C
ATOM     59  C2  IDS C   4      20.996  12.805  60.0800  0.00  0.00     0.000 C
ATOM     60  C3  IDS C   4      22.277  12.349  60.7830  0.00  0.00     0.000 C
ATOM     61  C4  IDS C   4      22.805  10.971  60.4090  0.00  0.00     0.000 C
ATOM     62  C5  IDS C   4      21.652  10.025  60.0530  0.00  0.00     0.000 C
ATOM     63  O5  IDS C   4      20.723  10.636  59.1700  0.00  0.00     0.000 O
ATOM     64   O  IDS C   4      21.964  12.346  62.1630  0.00  0.00     0.000 O
ATOM     66  HD  IDS C   4      21.967  11.538  62.4730  0.00  0.00     0.000 HD
BRANCH 59 66
ATOM     66   O  IDS C   4      21.415  13.442  58.8170  0.00  0.00     0.000 O
ATOM     67   S  IDS C   4      20.815  14.884  58.5150  0.00  0.00     0.000 S
ATOM     68   O  IDS C   4      21.376  15.700  59.5650  0.00  0.00     0.000 OA
ATOM     69   O  IDS C   4      21.274  15.207  57.1790  0.00  0.00     0.000 OA
ATOM     70   O  IDS C   4      19.368  14.781  58.6310  0.00  0.00     0.000 OA
ENDBRANCH 59 66
BRANCH 62 71
ATOM     71   C  IDS C   4      22.114   8.762  59.3510  0.00  0.00     0.000 C
ATOM     72   O  IDS C   4      22.217   8.740  58.1400  0.00  0.00     0.000 OA
ATOM     73   O  IDS C   4      22.281   7.731  60.0320  0.00  0.00     0.000 OA
ENDBRANCH 62 71
BRANCH 58 74
ATOM     74  O4  SGN C   5      19.227  11.380  60.8920  0.00  0.00     0.000 O
BRANCH 74 78
ATOM     75  C1  SGN C   5      15.495   9.941  62.0930  0.00  0.00     0.000 C
ATOM     76  C2  SGN C   5      16.309   9.017  61.1670  0.00  0.00     0.000 C
ATOM     77  C3  SGN C   5      17.767   9.487  61.0780  0.00  0.00     0.000 C
ATOM     78  C4  SGN C   5      17.859  10.983  60.8060  0.00  0.00     0.000 C
ATOM     79  C5  SGN C   5      17.018  11.736  61.8260  0.00  0.00     0.000 C
ATOM     80  O5  SGN C   5      15.634  11.307  61.7260  0.00  0.00     0.000 O
ATOM     81   O  SGN C   5      18.428   8.752  60.0540  0.00  0.00     0.000 O
ATOM     83  HD  SGN C   5      18.257   7.914  59.9140  0.00  0.00     0.000 HD
BRANCH 76 85
ATOM     83   N  SGN C   5      15.452   8.009  61.8030  0.00  0.00     0.000 N
ATOM     85  HD  SGN C   5      15.291   7.205  62.0830  0.00  0.00     0.000 HD
ATOM     85   S  SGN C   5      15.211   6.469  61.3970  0.00  0.00     0.000 S
ATOM     86   O  SGN C   5      14.329   5.844  62.3220  0.00  0.00     0.000 OA
ATOM     87   O  SGN C   5      14.832   6.450  60.0300  0.00  0.00     0.000 OA
ATOM     88   O  SGN C   5      16.648   6.010  61.6300  0.00  0.00     0.000 OA
ENDBRANCH 76 85
BRANCH 79 89
ATOM     89   C  SGN C   5      17.063  13.241  61.6530  0.00  0.00     0.000 C
ATOM     90   O  SGN C   5      15.849  13.831  62.1780  0.00  0.00     0.000 O
ATOM     91   S  SGN C   5      15.975  15.306  62.8000  0.00  0.00     0.000 S
ATOM     92   O  SGN C   5      17.043  15.250  63.7640  0.00  0.00     0.000 OA
ATOM     93   O  SGN C   5      16.263  16.202  61.7090  0.00  0.00     0.000 OA
ATOM     94   O  SGN C   5      14.683  15.527  63.3900  0.00  0.00     0.000 OA
ENDBRANCH 79 89
BRANCH 75 95
ATOM     95  O4  BDP C   6      16.000   9.749  63.3470  0.00  0.00     0.000 O
BRANCH 95 99
ATOM     96  C1  BDP C   6      14.001  10.256  67.1150  0.00  0.00     0.000 C
ATOM     97  C2  BDP C   6      13.170  10.058  65.8780  0.00  0.00     0.000 C
ATOM     98  C3  BDP C   6      13.949   9.511  64.6730  0.00  0.00     0.000 C
ATOM     99  C4  BDP C   6      15.236  10.291  64.4470  0.00  0.00     0.000 C
ATOM    100  C5  BDP C   6      15.987  10.375  65.7970  0.00  0.00     0.000 C
ATOM    101  O5  BDP C   6      15.064  11.068  66.6520  0.00  0.00     0.000 O
BRANCH 100 102
ATOM    102   C  BDP C   6      17.247  11.198  65.7110  0.00  0.00     0.000 C
ATOM    103   O  BDP C   6      18.360  10.736  66.0010  0.00  0.00     0.000 OA
ATOM    104   O  BDP C   6      17.128  12.365  65.3210  0.00  0.00     0.000 OA
ENDBRANCH 100 102
ENDBRANCH 95 99
ENDBRANCH 75 95
ENDBRANCH 74 78
ENDBRANCH 58 74
ENDBRANCH 57 61
ENDBRANCH 37 57
ENDBRANCH 36 40
ENDBRANCH 23 36
ENDBRANCH 22 26
ENDBRANCH 1 22
TORSDOF 20
ENDMDL
MODEL 12
REMARK VINA RESULT:      -6.8      1.960      2.539
ROOT
ATOM      1  C1  NGY C   1      16.992  30.952  21.5510  0.00  0.00     0.000 C
ATOM      2  C2  NGY C   1      16.913  32.467  21.6670  0.00  0.00     0.000 C
ATOM      3  C3  NGY C   1      15.492  32.898  22.0160  0.00  0.00     0.000 C
ATOM      4  C4  NGY C   1      14.549  32.307  20.9860  0.00  0.00     0.000 C
ATOM      5  C5  NGY C   1      14.666  30.786  21.0300  0.00  0.00     0.000 C
ATOM      6  O5  NGY C   1      16.024  30.424  20.6680  0.00  0.00     0.000 O
ATOM      7   O  NGY C   1      15.429  34.317  22.0470  0.00  0.00     0.000 O
ATOM      9  HD  NGY C   1      15.777  34.980  21.6130  0.00  0.00     0.000 HD
ATOM      9   O  NGY C   1      13.208  32.702  21.2390  0.00  0.00     0.000 O
ATOM     11  HD  NGY C   1      13.557  33.365  20.8040  0.00  0.00     0.000 HD
ENDROOT
BRANCH 2 13
ATOM     11   N  NGY C   1      17.529  33.768  21.7850  0.00  0.00     0.000 N
ATOM     13  HD  NGY C   1      18.231  33.543  22.2400  0.00  0.00     0.000 HD
ATOM     13   C  NGY C   1      18.681  33.939  22.4330  0.00  0.00     0.000 C
ATOM     14   O  NGY C   1      19.191  33.021  23.0780  0.00  0.00     0.000 OA
ATOM     15   C  NGY C   1      19.327  35.285  22.3130  0.00  0.00     0.000 C
ENDBRANCH 2 13
BRANCH 5 16
ATOM     16   C  NGY C   1      13.784  30.054  20.0700  0.00  0.00     0.000 C
ATOM     17   O  NGY C   1      10.159  29.678  20.4950  0.00  0.00     0.000 OA
ATOM     18   O  NGY C   1      12.484  29.920  20.6510  0.00  0.00     0.000 O
ATOM     19   S  NGY C   1      11.321  29.590  19.6480  0.00  0.00     0.000 S
ATOM     20   O  NGY C   1      11.545  28.253  19.1620  0.00  0.00     0.000 OA
ATOM     21   O  NGY C   1      11.429  30.608  18.6160  0.00  0.00     0.000 OA
ENDBRANCH 5 16
BRANCH 1 22
ATOM     22  O4  BDP C   2      16.913  30.417  22.7880  0.00  0.00     0.000 O
BRANCH 22 26
ATOM     23  C1  BDP C   2      18.278  27.673  25.5400  0.00  0.00     0.000 C
ATOM     24  C2  BDP C   2      19.324  28.230  24.6030  0.00  0.00     0.000 C
ATOM     25  C3  BDP C   2      18.787  29.458  23.9170  0.00  0.00     0.000 C
ATOM     26  C4  BDP C   2      17.448  29.150  23.2550  0.00  0.00     0.000 C
ATOM     27  C5  BDP C   2      16.536  28.434  24.2420  0.00  0.00     0.000 C
ATOM     28  O5  BDP C   2      17.127  27.220  24.7730  0.00  0.00     0.000 O
ATOM     29   O  BDP C   2      20.477  28.709  25.2960  0.00  0.00     0.000 O
ATOM     31  HD  BDP C   2      20.862  29.412  24.9680  0.00  0.00     0.000 HD
ATOM     31   O  BDP C   2      19.743  29.834  22.9330  0.00  0.00     0.000 O
ATOM     33  HD  BDP C   2      20.128  30.537  22.6050  0.00  0.00     0.000 HD
BRANCH 27 33
ATOM     33   C  BDP C   2      15.227  28.012  23.6190  0.00  0.00     0.000 C
ATOM     34   O  BDP C   2      15.121  26.967  22.9340  0.00  0.00     0.000 OA
ATOM     35   O  BDP C   2      14.256  28.737  23.7620  0.00  0.00     0.000 OA
ENDBRANCH 27 33
BRANCH 23 36
ATOM     36  O4  SGN C   3      18.685  26.642  26.3160  0.00  0.00     0.000 O
BRANCH 36 40
ATOM     37  C1  SGN C   3      18.423  24.831  30.0680  0.00  0.00     0.000 C
ATOM     38  C2  SGN C   3      17.137  24.931  29.2320  0.00  0.00     0.000 C
ATOM     39  C3  SGN C   3      17.471  25.196  27.7710  0.00  0.00     0.000 C
ATOM     40  C4  SGN C   3      18.315  26.450  27.6840  0.00  0.00     0.000 C
ATOM     41  C5  SGN C   3      19.542  26.273  28.5510  0.00  0.00     0.000 C
ATOM     42  O5  SGN C   3      19.145  26.042  29.9120  0.00  0.00     0.000 O
ATOM     43   O  SGN C   3      16.264  25.343  27.0330  0.00  0.00     0.000 O
ATOM     45  HD  SGN C   3      16.899  25.790  26.6510  0.00  0.00     0.000 HD
BRANCH 38 47
ATOM     45   N  SGN C   3      15.713  24.650  29.4900  0.00  0.00     0.000 N
ATOM     47  HD  SGN C   3      16.316  24.989  28.9700  0.00  0.00     0.000 HD
ATOM     47   S  SGN C   3      15.516  23.588  30.6560  0.00  0.00     0.000 S
ATOM     48   O  SGN C   3      16.010  22.310  30.2830  0.00  0.00     0.000 OA
ATOM     49   O  SGN C   3      16.070  24.169  31.8350  0.00  0.00     0.000 OA
ATOM     50   O  SGN C   3      14.059  23.498  30.7340  0.00  0.00     0.000 OA
ENDBRANCH 38 47
BRANCH 41 51
ATOM     51   C  SGN C   3      20.473  27.454  28.5480  0.00  0.00     0.000 C
ATOM     52   O  SGN C   3      24.066  27.491  27.5620  0.00  0.00     0.000 OA
ATOM     53   O  SGN C   3      22.396  29.187  27.3010  0.00  0.00     0.000 OA
ATOM     54   O  SGN C   3      23.103  28.502  29.4910  0.00  0.00     0.000 OA
ATOM     55   O  SGN C   3      21.730  27.043  28.0570  0.00  0.00     0.000 O
ATOM     56   S  SGN C   3      22.936  28.161  28.1090  0.00  0.00     0.000 S
ENDBRANCH 41 51
BRANCH 37 57
ATOM     57  O4  IDS C   4      19.240  23.804  29.7290  0.00  0.00     0.000 O
BRANCH 57 61
ATOM     58  C1  IDS C   4      20.960  21.123  31.8090  0.00  0.00     0.000 C
ATOM     59  C2  IDS C   4      19.991  22.042  32.4820  0.00  0.00     0.000 C
ATOM     60  C3  IDS C   4      20.109  23.488  31.9920  0.00  0.00     0.000 C
ATOM     61  C4  IDS C   4      20.439  23.683  30.5190  0.00  0.00     0.000 C
ATOM     62  C5  IDS C   4      21.321  22.540  30.0030  0.00  0.00     0.000 C
ATOM     63  O5  IDS C   4      20.827  21.271  30.4050  0.00  0.00     0.000 O
ATOM     64   O  IDS C   4      21.151  24.058  32.7610  0.00  0.00     0.000 O
ATOM     66  HD  IDS C   4      21.833  24.241  32.2600  0.00  0.00     0.000 HD
BRANCH 59 66
ATOM     66   O  IDS C   4      18.595  21.631  32.2400  0.00  0.00     0.000 O
ATOM     67   S  IDS C   4      17.719  21.300  33.5260  0.00  0.00     0.000 S
ATOM     68   O  IDS C   4      17.635  22.572  34.2030  0.00  0.00     0.000 OA
ATOM     69   O  IDS C   4      16.462  20.803  33.0030  0.00  0.00     0.000 OA
ATOM     70   O  IDS C   4      18.457  20.322  34.3100  0.00  0.00     0.000 OA
ENDBRANCH 59 66
BRANCH 62 71
ATOM     71   C  IDS C   4      21.402  22.487  28.4900  0.00  0.00     0.000 C
ATOM     72   O  IDS C   4      20.783  21.640  27.8750  0.00  0.00     0.000 OA
ATOM     73   O  IDS C   4      22.192  23.258  27.9100  0.00  0.00     0.000 OA
ENDBRANCH 62 71
BRANCH 58 74
ATOM     74  O4  SGN C   5      22.207  21.097  32.3610  0.00  0.00     0.000 O
BRANCH 74 78
ATOM     75  C1  SGN C   5      25.622  18.824  33.1450  0.00  0.00     0.000 C
ATOM     76  C2  SGN C   5      25.445  19.299  31.6900  0.00  0.00     0.000 C
ATOM     77  C3  SGN C   5      24.367  20.387  31.6020  0.00  0.00     0.000 C
ATOM     78  C4  SGN C   5      23.103  19.986  32.3490  0.00  0.00     0.000 C
ATOM     79  C5  SGN C   5      23.462  19.573  33.7680  0.00  0.00     0.000 C
ATOM     80  O5  SGN C   5      24.381  18.449  33.7290  0.00  0.00     0.000 O
ATOM     81   O  SGN C   5      24.079  20.641  30.2300  0.00  0.00     0.000 O
ATOM     83  HD  SGN C   5      24.698  20.627  29.6250  0.00  0.00     0.000 HD
BRANCH 76 85
ATOM     83   N  SGN C   5      26.347  19.346  30.5320  0.00  0.00     0.000 N
ATOM     85  HD  SGN C   5      27.006  19.041  30.0600  0.00  0.00     0.000 HD
ATOM     85   S  SGN C   5      27.932  19.072  30.4580  0.00  0.00     0.000 S
ATOM     86   O  SGN C   5      28.394  19.184  29.1180  0.00  0.00     0.000 OA
ATOM     87   O  SGN C   5      28.548  19.908  31.4260  0.00  0.00     0.000 OA
ATOM     88   O  SGN C   5      27.867  17.607  30.8840  0.00  0.00     0.000 OA
ENDBRANCH 76 85
BRANCH 79 89
ATOM     89   C  SGN C   5      22.262  19.177  34.6040  0.00  0.00     0.000 C
ATOM     90   O  SGN C   5      21.748  17.900  34.1500  0.00  0.00     0.000 O
ATOM     91   S  SGN C   5      21.067  16.962  35.2590  0.00  0.00     0.000 S
ATOM     92   O  SGN C   5      22.020  16.842  36.3320  0.00  0.00     0.000 OA
ATOM     93   O  SGN C   5      19.850  17.611  35.6740  0.00  0.00     0.000 OA
ATOM     94   O  SGN C   5      20.841  15.729  34.5550  0.00  0.00     0.000 OA
ENDBRANCH 79 89
BRANCH 75 95
ATOM     95  O4  BDP C   6      26.145  19.889  33.8230  0.00  0.00     0.000 O
BRANCH 95 99
ATOM     96  C1  BDP C   6      28.858  20.079  37.1460  0.00  0.00     0.000 C
ATOM     97  C2  BDP C   6      29.105  19.058  36.0710  0.00  0.00     0.000 C
ATOM     98  C3  BDP C   6      28.334  19.313  34.7670  0.00  0.00     0.000 C
ATOM     99  C4  BDP C   6      26.864  19.596  35.0400  0.00  0.00     0.000 C
ATOM    100  C5  BDP C   6      26.783  20.684  36.1360  0.00  0.00     0.000 C
ATOM    101  O5  BDP C   6      27.447  20.082  37.2580  0.00  0.00     0.000 O
BRANCH 100 102
ATOM    102   C  BDP C   6      25.365  20.992  36.5460  0.00  0.00     0.000 C
ATOM    103   O  BDP C   6      24.856  22.110  36.3820  0.00  0.00     0.000 OA
ATOM    104   O  BDP C   6      24.715  20.067  37.0480  0.00  0.00     0.000 OA
ENDBRANCH 100 102
ENDBRANCH 95 99
ENDBRANCH 75 95
ENDBRANCH 74 78
ENDBRANCH 58 74
ENDBRANCH 57 61
ENDBRANCH 37 57
ENDBRANCH 36 40
ENDBRANCH 23 36
ENDBRANCH 22 26
ENDBRANCH 1 22
TORSDOF 20
ENDMDL
MODEL 13
REMARK VINA RESULT:      -6.8     17.316     23.169
ROOT
ATOM      1  C1  NGY C   1      26.338  11.879  43.7890  0.00  0.00     0.000 C
ATOM      2  C2  NGY C   1      25.353  10.899  44.4110  0.00  0.00     0.000 C
ATOM      3  C3  NGY C   1      23.925  11.264  44.0180  0.00  0.00     0.000 C
ATOM      4  C4  NGY C   1      23.682  12.712  44.3990  0.00  0.00     0.000 C
ATOM      5  C5  NGY C   1      24.678  13.590  43.6470  0.00  0.00     0.000 C
ATOM      6  O5  NGY C   1      26.017  13.224  44.0710  0.00  0.00     0.000 O
ATOM      7   O  NGY C   1      23.021  10.382  44.6670  0.00  0.00     0.000 O
ATOM      9  HD  NGY C   1      22.961   9.982  45.4330  0.00  0.00     0.000 HD
ATOM      9   O  NGY C   1      22.353  13.103  44.0870  0.00  0.00     0.000 O
ATOM     11  HD  NGY C   1      22.292  12.703  44.8520  0.00  0.00     0.000 HD
ENDROOT
BRANCH 2 13
ATOM     11   N  NGY C   1      24.950   9.610  44.9230  0.00  0.00     0.000 N
ATOM     13  HD  NGY C   1      25.668   9.162  44.7390  0.00  0.00     0.000 HD
ATOM     13   C  NGY C   1      25.756   8.551  44.8600  0.00  0.00     0.000 C
ATOM     14   O  NGY C   1      26.818   8.595  44.2360  0.00  0.00     0.000 OA
ATOM     15   C  NGY C   1      25.318   7.327  45.6050  0.00  0.00     0.000 C
ENDBRANCH 2 13
BRANCH 5 16
ATOM     16   C  NGY C   1      24.557  15.057  43.9120  0.00  0.00     0.000 C
ATOM     17   O  NGY C   1      22.303  17.294  42.0760  0.00  0.00     0.000 OA
ATOM     18   O  NGY C   1      23.760  15.647  42.8820  0.00  0.00     0.000 O
ATOM     19   S  NGY C   1      23.154  17.058  43.2140  0.00  0.00     0.000 S
ATOM     20   O  NGY C   1      24.252  17.987  43.2790  0.00  0.00     0.000 OA
ATOM     21   O  NGY C   1      22.473  16.874  44.4850  0.00  0.00     0.000 OA
ENDBRANCH 5 16
BRANCH 1 22
ATOM     22  O4  BDP C   2      26.421  11.630  42.4650  0.00  0.00     0.000 O
BRANCH 22 26
ATOM     23  C1  BDP C   2      28.512  11.566  38.9170  0.00  0.00     0.000 C
ATOM     24  C2  BDP C   2      29.065  10.687  40.0140  0.00  0.00     0.000 C
ATOM     25  C3  BDP C   2      28.032  10.519  41.0970  0.00  0.00     0.000 C
ATOM     26  C4  BDP C   2      27.537  11.881  41.5710  0.00  0.00     0.000 C
ATOM     27  C5  BDP C   2      27.171  12.744  40.3710  0.00  0.00     0.000 C
ATOM     28  O5  BDP C   2      28.271  12.904  39.4380  0.00  0.00     0.000 O
ATOM     29   O  BDP C   2      29.309   9.352  39.5710  0.00  0.00     0.000 O
ATOM     31  HD  BDP C   2      29.159   8.721  40.1440  0.00  0.00     0.000 HD
ATOM     31   O  BDP C   2      28.664   9.829  42.1680  0.00  0.00     0.000 O
ATOM     33  HD  BDP C   2      28.515   9.198  42.7410  0.00  0.00     0.000 HD
BRANCH 27 33
ATOM     33   C  BDP C   2      26.764  14.143  40.7680  0.00  0.00     0.000 C
ATOM     34   O  BDP C   2      25.687  14.658  40.3830  0.00  0.00     0.000 OA
ATOM     35   O  BDP C   2      27.530  14.797  41.4560  0.00  0.00     0.000 OA
ENDBRANCH 27 33
BRANCH 23 36
ATOM     36  O4  SGN C   3      29.296  11.690  37.8220  0.00  0.00     0.000 O
BRANCH 36 40
ATOM     37  C1  SGN C   3      29.487  11.164  33.6850  0.00  0.00     0.000 C
ATOM     38  C2  SGN C   3      28.984  12.518  34.2100  0.00  0.00     0.000 C
ATOM     39  C3  SGN C   3      29.382  12.705  35.6670  0.00  0.00     0.000 C
ATOM     40  C4  SGN C   3      28.849  11.539  36.4720  0.00  0.00     0.000 C
ATOM     41  C5  SGN C   3      29.373  10.253  35.8730  0.00  0.00     0.000 C
ATOM     42  O5  SGN C   3      28.943  10.143  34.5070  0.00  0.00     0.000 O
ATOM     43   O  SGN C   3      28.853  13.936  36.1430  0.00  0.00     0.000 O
ATOM     45  HD  SGN C   3      28.943  13.380  36.8000  0.00  0.00     0.000 HD
BRANCH 38 47
ATOM     45   N  SGN C   3      29.706  13.382  33.2600  0.00  0.00     0.000 N
ATOM     47  HD  SGN C   3      29.737  12.826  33.9230  0.00  0.00     0.000 HD
ATOM     47   S  SGN C   3      28.784  13.842  32.0500  0.00  0.00     0.000 S
ATOM     48   O  SGN C   3      28.415  12.741  31.2320  0.00  0.00     0.000 OA
ATOM     49   O  SGN C   3      27.719  14.605  32.6150  0.00  0.00     0.000 OA
ATOM     50   O  SGN C   3      29.699  14.683  31.2810  0.00  0.00     0.000 OA
ENDBRANCH 38 47
BRANCH 41 51
ATOM     51   C  SGN C   3      28.917   9.010  36.5890  0.00  0.00     0.000 C
ATOM     52   O  SGN C   3      28.034   5.726  35.0680  0.00  0.00     0.000 OA
ATOM     53   O  SGN C   3      29.065   6.201  37.1760  0.00  0.00     0.000 OA
ATOM     54   O  SGN C   3      26.810   6.903  36.7380  0.00  0.00     0.000 OA
ATOM     55   O  SGN C   3      28.738   7.979  35.6440  0.00  0.00     0.000 O
ATOM     56   S  SGN C   3      28.101   6.572  36.2110  0.00  0.00     0.000 S
ENDBRANCH 41 51
BRANCH 37 57
ATOM     57  O4  IDS C   4      30.835  11.026  33.6740  0.00  0.00     0.000 O
BRANCH 57 61
ATOM     58  C1  IDS C   4      34.057  10.284  31.7930  0.00  0.00     0.000 C
ATOM     59  C2  IDS C   4      32.980  11.053  31.0960  0.00  0.00     0.000 C
ATOM     60  C3  IDS C   4      31.579  10.518  31.4010  0.00  0.00     0.000 C
ATOM     61  C4  IDS C   4      31.343   9.991  32.8100  0.00  0.00     0.000 C
ATOM     62  C5  IDS C   4      32.626   9.379  33.3830  0.00  0.00     0.000 C
ATOM     63  O5  IDS C   4      33.750  10.222  33.1750  0.00  0.00     0.000 O
ATOM     64   O  IDS C   4      31.380   9.455  30.4890  0.00  0.00     0.000 O
ATOM     66  HD  IDS C   4      31.339   8.698  30.9090  0.00  0.00     0.000 HD
BRANCH 59 66
ATOM     66   O  IDS C   4      32.982  12.473  31.4970  0.00  0.00     0.000 O
ATOM     67   S  IDS C   4      33.343  13.531  30.3650  0.00  0.00     0.000 S
ATOM     68   O  IDS C   4      32.254  13.395  29.4280  0.00  0.00     0.000 OA
ATOM     69   O  IDS C   4      33.403  14.807  31.0510  0.00  0.00     0.000 OA
ATOM     70   O  IDS C   4      34.609  13.118  29.7790  0.00  0.00     0.000 OA
ENDBRANCH 59 66
BRANCH 62 71
ATOM     71   C  IDS C   4      32.558   9.151  34.8820  0.00  0.00     0.000 C
ATOM     72   O  IDS C   4      31.990   8.172  35.3240  0.00  0.00     0.000 OA
ATOM     73   O  IDS C   4      33.003  10.037  35.6380  0.00  0.00     0.000 OA
ENDBRANCH 62 71
BRANCH 58 74
ATOM     74  O4  SGN C   5      34.465   9.153  31.1490  0.00  0.00     0.000 O
BRANCH 74 78
ATOM     75  C1  SGN C   5      37.665   6.478  30.9470  0.00  0.00     0.000 C
ATOM     76  C2  SGN C   5      37.545   7.291  32.2500  0.00  0.00     0.000 C
ATOM     77  C3  SGN C   5      36.170   7.965  32.3440  0.00  0.00     0.000 C
ATOM     78  C4  SGN C   5      35.810   8.685  31.0520  0.00  0.00     0.000 C
ATOM     79  C5  SGN C   5      35.960   7.728  29.8790  0.00  0.00     0.000 C
ATOM     80  O5  SGN C   5      37.333   7.260  29.8080  0.00  0.00     0.000 O
ATOM     81   O  SGN C   5      36.177   8.876  33.4390  0.00  0.00     0.000 O
ATOM     83  HD  SGN C   5      36.598   8.699  34.1740  0.00  0.00     0.000 HD
BRANCH 76 85
ATOM     83   N  SGN C   5      38.781   6.669  32.7410  0.00  0.00     0.000 N
ATOM     85  HD  SGN C   5      39.211   6.049  33.1670  0.00  0.00     0.000 HD
ATOM     85   S  SGN C   5      39.084   5.980  34.1660  0.00  0.00     0.000 S
ATOM     86   O  SGN C   5      40.408   5.464  34.1970  0.00  0.00     0.000 OA
ATOM     87   O  SGN C   5      38.733   6.921  35.1690  0.00  0.00     0.000 OA
ATOM     88   O  SGN C   5      38.069   4.849  34.0210  0.00  0.00     0.000 OA
ENDBRANCH 76 85
BRANCH 79 89
ATOM     89   C  SGN C   5      35.599   8.348  28.5440  0.00  0.00     0.000 C
ATOM     90   O  SGN C   5      34.199   8.111  28.2570  0.00  0.00     0.000 O
ATOM     91   S  SGN C   5      33.439   9.234  27.3980  0.00  0.00     0.000 S
ATOM     92   O  SGN C   5      33.678  10.486  28.0660  0.00  0.00     0.000 OA
ATOM     93   O  SGN C   5      33.997   9.202  26.0710  0.00  0.00     0.000 OA
ATOM     94   O  SGN C   5      32.065   8.812  27.4460  0.00  0.00     0.000 OA
ENDBRANCH 79 89
BRANCH 75 95
ATOM     95  O4  BDP C   6      36.778   5.446  31.0700  0.00  0.00     0.000 O
BRANCH 95 99
ATOM     96  C1  BDP C   6      36.577   1.667  29.0400  0.00  0.00     0.000 C
ATOM     97  C2  BDP C   6      37.928   2.242  29.3620  0.00  0.00     0.000 C
ATOM     98  C3  BDP C   6      37.904   3.371  30.4020  0.00  0.00     0.000 C
ATOM     99  C4  BDP C   6      36.842   4.409  30.0680  0.00  0.00     0.000 C
ATOM    100  C5  BDP C   6      35.514   3.663  29.7990  0.00  0.00     0.000 C
ATOM    101  O5  BDP C   6      35.825   2.812  28.6850  0.00  0.00     0.000 O
BRANCH 100 102
ATOM    102   C  BDP C   6      34.402   4.591  29.3790  0.00  0.00     0.000 C
ATOM    103   O  BDP C   6      34.167   4.846  28.1890  0.00  0.00     0.000 OA
ATOM    104   O  BDP C   6      33.714   5.084  30.2810  0.00  0.00     0.000 OA
ENDBRANCH 100 102
ENDBRANCH 95 99
ENDBRANCH 75 95
ENDBRANCH 74 78
ENDBRANCH 58 74
ENDBRANCH 57 61
ENDBRANCH 37 57
ENDBRANCH 36 40
ENDBRANCH 23 36
ENDBRANCH 22 26
ENDBRANCH 1 22
TORSDOF 20
ENDMDL
MODEL 14
REMARK VINA RESULT:      -6.6     33.143     37.473
ROOT
ATOM      1  C1  NGY C   1      18.711  10.612  62.3960  0.00  0.00     0.000 C
ATOM      2  C2  NGY C   1      17.274  10.689  61.9010  0.00  0.00     0.000 C
ATOM      3  C3  NGY C   1      16.990  12.069  61.3150  0.00  0.00     0.000 C
ATOM      4  C4  NGY C   1      17.342  13.111  62.3590  0.00  0.00     0.000 C
ATOM      5  C5  NGY C   1      18.822  12.978  62.7040  0.00  0.00     0.000 C
ATOM      6  O5  NGY C   1      19.039  11.663  63.2790  0.00  0.00     0.000 O
ATOM      7   O  NGY C   1      15.626  12.140  60.9280  0.00  0.00     0.000 O
ATOM      9  HD  NGY C   1      14.865  11.845  61.2170  0.00  0.00     0.000 HD
ATOM      9   O  NGY C   1      17.067  14.420  61.8820  0.00  0.00     0.000 O
ATOM     11  HD  NGY C   1      16.306  14.125  62.1720  0.00  0.00     0.000 HD
ENDROOT
BRANCH 2 13
ATOM     11   N  NGY C   1      16.357  10.138  60.9310  0.00  0.00     0.000 N
ATOM     13  HD  NGY C   1      16.317   9.326  61.2300  0.00  0.00     0.000 HD
ATOM     13   C  NGY C   1      15.976   8.862  60.9770  0.00  0.00     0.000 C
ATOM     14   O  NGY C   1      16.500   8.069  61.7600  0.00  0.00     0.000 OA
ATOM     15   C  NGY C   1      14.868   8.458  60.0530  0.00  0.00     0.000 C
ENDBRANCH 2 13
BRANCH 5 16
ATOM     16   C  NGY C   1      19.327  13.952  63.7210  0.00  0.00     0.000 C
ATOM     17   O  NGY C   1      22.374  15.953  63.3070  0.00  0.00     0.000 OA
ATOM     18   O  NGY C   1      20.634  14.385  63.3340  0.00  0.00     0.000 O
ATOM     19   S  NGY C   1      21.137  15.712  64.0070  0.00  0.00     0.000 S
ATOM     20   O  NGY C   1      21.344  15.429  65.4030  0.00  0.00     0.000 OA
ATOM     21   O  NGY C   1      20.075  16.674  63.7610  0.00  0.00     0.000 OA
ENDBRANCH 5 16
BRANCH 1 22
ATOM     22  O4  BDP C   2      19.536  10.554  61.3280  0.00  0.00     0.000 O
BRANCH 22 26
ATOM     23  C1  BDP C   2      23.165   9.171  59.9580  0.00  0.00     0.000 C
ATOM     24  C2  BDP C   2      22.705   8.593  61.2750  0.00  0.00     0.000 C
ATOM     25  C3  BDP C   2      21.241   8.889  61.4730  0.00  0.00     0.000 C
ATOM     26  C4  BDP C   2      20.977  10.382  61.3140  0.00  0.00     0.000 C
ATOM     27  C5  BDP C   2      21.636  10.890  60.0380  0.00  0.00     0.000 C
ATOM     28  O5  BDP C   2      23.062  10.622  59.9980  0.00  0.00     0.000 O
ATOM     29   O  BDP C   2      22.766   7.167  61.2940  0.00  0.00     0.000 O
ATOM     31  HD  BDP C   2      22.140   6.758  61.7320  0.00  0.00     0.000 HD
ATOM     31   O  BDP C   2      20.910   8.472  62.7920  0.00  0.00     0.000 O
ATOM     33  HD  BDP C   2      20.284   8.063  63.2300  0.00  0.00     0.000 HD
BRANCH 27 33
ATOM     33   C  BDP C   2      21.495  12.385  59.8710  0.00  0.00     0.000 C
ATOM     34   O  BDP C   2      21.985  13.195  60.6930  0.00  0.00     0.000 OA
ATOM     35   O  BDP C   2      20.854  12.804  58.9220  0.00  0.00     0.000 OA
ENDBRANCH 27 33
BRANCH 23 36
ATOM     36  O4  SGN C   3      24.433   8.861  59.6000  0.00  0.00     0.000 O
BRANCH 36 40
ATOM     37  C1  SGN C   3      27.123   8.478  56.4300  0.00  0.00     0.000 C
ATOM     38  C2  SGN C   3      26.434   9.839  56.6220  0.00  0.00     0.000 C
ATOM     39  C3  SGN C   3      25.853   9.949  58.0240  0.00  0.00     0.000 C
ATOM     40  C4  SGN C   3      24.910   8.787  58.2540  0.00  0.00     0.000 C
ATOM     41  C5  SGN C   3      25.662   7.495  58.0220  0.00  0.00     0.000 C
ATOM     42  O5  SGN C   3      26.165   7.461  56.6770  0.00  0.00     0.000 O
ATOM     43   O  SGN C   3      25.172  11.191  58.1530  0.00  0.00     0.000 O
ATOM     45  HD  SGN C   3      24.823  10.606  58.6890  0.00  0.00     0.000 HD
BRANCH 38 47
ATOM     45   N  SGN C   3      26.897   9.887  55.2240  0.00  0.00     0.000 N
ATOM     47  HD  SGN C   3      26.403   9.508  55.8250  0.00  0.00     0.000 HD
ATOM     47   S  SGN C   3      27.640  11.251  54.8870  0.00  0.00     0.000 S
ATOM     48   O  SGN C   3      26.747  12.354  54.9430  0.00  0.00     0.000 OA
ATOM     49   O  SGN C   3      28.787  11.312  55.7320  0.00  0.00     0.000 OA
ATOM     50   O  SGN C   3      28.011  11.050  53.4880  0.00  0.00     0.000 OA
ENDBRANCH 38 47
BRANCH 41 51
ATOM     51   C  SGN C   3      24.834   6.256  58.2250  0.00  0.00     0.000 C
ATOM     52   O  SGN C   3      21.175   5.869  57.6410  0.00  0.00     0.000 OA
ATOM     53   O  SGN C   3      22.940   4.279  57.3510  0.00  0.00     0.000 OA
ATOM     54   O  SGN C   3      22.407   5.120  59.5360  0.00  0.00     0.000 OA
ATOM     55   O  SGN C   3      23.505   6.528  57.8390  0.00  0.00     0.000 O
ATOM     56   S  SGN C   3      22.405   5.337  58.1200  0.00  0.00     0.000 S
ENDBRANCH 41 51
BRANCH 37 57
ATOM     57  O4  IDS C   4      28.187   8.264  57.2420  0.00  0.00     0.000 O
BRANCH 57 61
ATOM     58  C1  IDS C   4      31.732   6.983  56.7280  0.00  0.00     0.000 C
ATOM     59  C2  IDS C   4      30.899   7.291  55.5250  0.00  0.00     0.000 C
ATOM     60  C3  IDS C   4      29.441   6.854  55.6870  0.00  0.00     0.000 C
ATOM     61  C4  IDS C   4      28.840   6.990  57.0790  0.00  0.00     0.000 C
ATOM     62  C5  IDS C   4      29.911   6.781  58.1560  0.00  0.00     0.000 C
ATOM     63  O5  IDS C   4      31.092   7.517  57.8740  0.00  0.00     0.000 O
ATOM     64   O  IDS C   4      29.420   5.486  55.3240  0.00  0.00     0.000 O
ATOM     66  HD  IDS C   4      29.240   4.993  56.0130  0.00  0.00     0.000 HD
BRANCH 59 66
ATOM     66   O  IDS C   4      30.872   8.739  55.2410  0.00  0.00     0.000 O
ATOM     67   S  IDS C   4      31.454   9.197  53.8320  0.00  0.00     0.000 S
ATOM     68   O  IDS C   4      30.538   8.600  52.8890  0.00  0.00     0.000 OA
ATOM     69   O  IDS C   4      31.431  10.646  53.8720  0.00  0.00     0.000 OA
ATOM     70   O  IDS C   4      32.789   8.633  53.7140  0.00  0.00     0.000 OA
ENDBRANCH 59 66
BRANCH 62 71
ATOM     71   C  IDS C   4      29.465   7.235  59.5340  0.00  0.00     0.000 C
ATOM     72   O  IDS C   4      30.124   8.050  60.1500  0.00  0.00     0.000 OA
ATOM     73   O  IDS C   4      28.477   6.677  60.0510  0.00  0.00     0.000 OA
ENDBRANCH 62 71
BRANCH 58 74
ATOM     74  O4  SGN C   5      32.229   5.713  56.7740  0.00  0.00     0.000 O
BRANCH 74 78
ATOM     75  C1  SGN C   5      35.525   3.367  57.8090  0.00  0.00     0.000 C
ATOM     76  C2  SGN C   5      34.392   3.438  58.8510  0.00  0.00     0.000 C
ATOM     77  C3  SGN C   5      33.120   4.029  58.2290  0.00  0.00     0.000 C
ATOM     78  C4  SGN C   5      33.416   5.305  57.4520  0.00  0.00     0.000 C
ATOM     79  C5  SGN C   5      34.538   5.044  56.4570  0.00  0.00     0.000 C
ATOM     80  O5  SGN C   5      35.730   4.621  57.1700  0.00  0.00     0.000 O
ATOM     81   O  SGN C   5      32.175   4.282  59.2640  0.00  0.00     0.000 O
ATOM     83  HD  SGN C   5      32.092   3.751  59.9430  0.00  0.00     0.000 HD
BRANCH 76 85
ATOM     83   N  SGN C   5      35.186   2.367  59.4660  0.00  0.00     0.000 N
ATOM     85  HD  SGN C   5      35.282   1.562  59.7700  0.00  0.00     0.000 HD
ATOM     85   S  SGN C   5      34.762   1.298  60.5940  0.00  0.00     0.000 S
ATOM     86   O  SGN C   5      35.837   0.408  60.8640  0.00  0.00     0.000 OA
ATOM     87   O  SGN C   5      34.240   2.032  61.6900  0.00  0.00     0.000 OA
ATOM     88   O  SGN C   5      33.683   0.603  59.7660  0.00  0.00     0.000 OA
ENDBRANCH 76 85
BRANCH 79 89
ATOM     89   C  SGN C   5      34.891   6.253  55.6150  0.00  0.00     0.000 C
ATOM     90   O  SGN C   5      36.048   5.958  54.7950  0.00  0.00     0.000 O
ATOM     91   S  SGN C   5      36.128   6.692  53.3700  0.00  0.00     0.000 S
ATOM     92   O  SGN C   5      34.878   6.428  52.7060  0.00  0.00     0.000 OA
ATOM     93   O  SGN C   5      36.329   8.095  53.6280  0.00  0.00     0.000 OA
ATOM     94   O  SGN C   5      37.256   6.064  52.7380  0.00  0.00     0.000 OA
ENDBRANCH 79 89
BRANCH 75 95
ATOM     95  O4  BDP C   6      35.125   2.442  56.8870  0.00  0.00     0.000 O
BRANCH 95 99
ATOM     96  C1  BDP C   6      37.412  -0.175  54.3640  0.00  0.00     0.000 C
ATOM     97  C2  BDP C   6      37.915   0.111  55.7510  0.00  0.00     0.000 C
ATOM     98  C3  BDP C   6      36.866   0.726  56.6900  0.00  0.00     0.000 C
ATOM     99  C4  BDP C   6      36.148   1.893  56.0290  0.00  0.00     0.000 C
ATOM    100  C5  BDP C   6      35.666   1.429  54.6350  0.00  0.00     0.000 C
ATOM    101  O5  BDP C   6      36.882   1.073  53.9580  0.00  0.00     0.000 O
BRANCH 100 102
ATOM    102   C  BDP C   6      35.004   2.534  53.8510  0.00  0.00     0.000 C
ATOM    103   O  BDP C   6      33.804   2.812  53.9830  0.00  0.00     0.000 OA
ATOM    104   O  BDP C   6      35.720   3.169  53.0680  0.00  0.00     0.000 OA
ENDBRANCH 100 102
ENDBRANCH 95 99
ENDBRANCH 75 95
ENDBRANCH 74 78
ENDBRANCH 58 74
ENDBRANCH 57 61
ENDBRANCH 37 57
ENDBRANCH 36 40
ENDBRANCH 23 36
ENDBRANCH 22 26
ENDBRANCH 1 22
TORSDOF 20
ENDMDL
MODEL 15
REMARK VINA RESULT:      -6.6     16.791     22.478
ROOT
ATOM      1  C1  NGY C   1      25.799  12.695  44.4510  0.00  0.00     0.000 C
ATOM      2  C2  NGY C   1      24.921  11.724  45.2270  0.00  0.00     0.000 C
ATOM      3  C3  NGY C   1      23.456  11.918  44.8500  0.00  0.00     0.000 C
ATOM      4  C4  NGY C   1      23.100  13.377  45.0600  0.00  0.00     0.000 C
ATOM      5  C5  NGY C   1      23.994  14.233  44.1660  0.00  0.00     0.000 C
ATOM      6  O5  NGY C   1      25.371  14.034  44.5770  0.00  0.00     0.000 O
ATOM      7   O  NGY C   1      22.652  11.053  45.6390  0.00  0.00     0.000 O
ATOM      9  HD  NGY C   1      22.650  10.749  46.4500  0.00  0.00     0.000 HD
ATOM      9   O  NGY C   1      21.733  13.615  44.7560  0.00  0.00     0.000 O
ATOM     11  HD  NGY C   1      21.731  13.311  45.5670  0.00  0.00     0.000 HD
ENDROOT
BRANCH 2 13
ATOM     11   N  NGY C   1      25.589  10.811  46.1260  0.00  0.00     0.000 N
ATOM     13  HD  NGY C   1      25.372  10.064  45.7440  0.00  0.00     0.000 HD
ATOM     13   C  NGY C   1      25.540   9.492  45.9450  0.00  0.00     0.000 C
ATOM     14   O  NGY C   1      24.807   8.994  45.0890  0.00  0.00     0.000 OA
ATOM     15   C  NGY C   1      26.436   8.660  46.8100  0.00  0.00     0.000 C
ENDBRANCH 2 13
BRANCH 5 16
ATOM     16   C  NGY C   1      23.755  15.706  44.2540  0.00  0.00     0.000 C
ATOM     17   O  NGY C   1      21.693  17.593  41.8780  0.00  0.00     0.000 OA
ATOM     18   O  NGY C   1      23.095  16.137  43.0600  0.00  0.00     0.000 O
ATOM     19   S  NGY C   1      22.370  17.528  43.1480  0.00  0.00     0.000 S
ATOM     20   O  NGY C   1      23.393  18.533  43.2760  0.00  0.00     0.000 OA
ATOM     21   O  NGY C   1      21.512  17.421  44.3170  0.00  0.00     0.000 OA
ENDBRANCH 5 16
BRANCH 1 22
ATOM     22  O4  BDP C   2      25.864  12.289  43.1650  0.00  0.00     0.000 O
BRANCH 22 26
ATOM     23  C1  BDP C   2      27.839  11.977  39.5640  0.00  0.00     0.000 C
ATOM     24  C2  BDP C   2      28.531  11.335  40.7430  0.00  0.00     0.000 C
ATOM     25  C3  BDP C   2      27.560  11.198  41.8870  0.00  0.00     0.000 C
ATOM     26  C4  BDP C   2      26.912  12.544  42.1930  0.00  0.00     0.000 C
ATOM     27  C5  BDP C   2      26.404  13.178  40.9040  0.00  0.00     0.000 C
ATOM     28  O5  BDP C   2      27.447  13.335  39.9080  0.00  0.00     0.000 O
ATOM     29   O  BDP C   2      28.927   9.989  40.4750  0.00  0.00     0.000 O
ATOM     31  HD  BDP C   2      28.876   9.432  41.1360  0.00  0.00     0.000 HD
ATOM     31   O  BDP C   2      28.306  10.748  43.0110  0.00  0.00     0.000 O
ATOM     33  HD  BDP C   2      28.255  10.190  43.6710  0.00  0.00     0.000 HD
BRANCH 27 33
ATOM     33   C  BDP C   2      25.837  14.560  41.1260  0.00  0.00     0.000 C
ATOM     34   O  BDP C   2      26.479  15.455  41.7260  0.00  0.00     0.000 OA
ATOM     35   O  BDP C   2      24.705  14.792  40.7340  0.00  0.00     0.000 OA
ENDBRANCH 27 33
BRANCH 23 36
ATOM     36  O4  SGN C   3      28.568  12.037  38.4260  0.00  0.00     0.000 O
BRANCH 36 40
ATOM     37  C1  SGN C   3      28.504  11.600  34.2750  0.00  0.00     0.000 C
ATOM     38  C2  SGN C   3      28.004  12.930  34.8610  0.00  0.00     0.000 C
ATOM     39  C3  SGN C   3      28.490  13.098  36.2930  0.00  0.00     0.000 C
ATOM     40  C4  SGN C   3      28.038  11.903  37.1040  0.00  0.00     0.000 C
ATOM     41  C5  SGN C   3      28.554  10.642  36.4450  0.00  0.00     0.000 C
ATOM     42  O5  SGN C   3      28.041  10.549  35.1080  0.00  0.00     0.000 O
ATOM     43   O  SGN C   3      27.963  14.305  36.8280  0.00  0.00     0.000 O
ATOM     45  HD  SGN C   3      28.108  13.738  37.4660  0.00  0.00     0.000 HD
BRANCH 38 47
ATOM     45   N  SGN C   3      27.357  12.940  33.5360  0.00  0.00     0.000 N
ATOM     47  HD  SGN C   3      27.430  12.579  34.3200  0.00  0.00     0.000 HD
ATOM     47   S  SGN C   3      27.632  14.292  32.7470  0.00  0.00     0.000 S
ATOM     48   O  SGN C   3      27.017  15.400  33.3880  0.00  0.00     0.000 OA
ATOM     49   O  SGN C   3      29.043  14.370  32.5490  0.00  0.00     0.000 OA
ATOM     50   O  SGN C   3      26.924  14.053  31.4910  0.00  0.00     0.000 OA
ENDBRANCH 38 47
BRANCH 41 51
ATOM     51   C  SGN C   3      28.176   9.374  37.1620  0.00  0.00     0.000 C
ATOM     52   O  SGN C   3      24.782   8.363  38.3170  0.00  0.00     0.000 OA
ATOM     53   O  SGN C   3      26.579   7.010  37.4970  0.00  0.00     0.000 OA
ATOM     54   O  SGN C   3      26.812   8.227  39.5540  0.00  0.00     0.000 OA
ATOM     55   O  SGN C   3      26.782   9.367  37.3700  0.00  0.00     0.000 O
ATOM     56   S  SGN C   3      26.184   8.125  38.2700  0.00  0.00     0.000 S
ENDBRANCH 41 51
BRANCH 37 57
ATOM     57  O4  IDS C   4      29.853  11.498  34.1750  0.00  0.00     0.000 O
BRANCH 57 61
ATOM     58  C1  IDS C   4      33.131  11.139  32.2780  0.00  0.00     0.000 C
ATOM     59  C2  IDS C   4      32.177  12.215  31.8670  0.00  0.00     0.000 C
ATOM     60  C3  IDS C   4      30.717  11.758  31.9030  0.00  0.00     0.000 C
ATOM     61  C4  IDS C   4      30.333  10.792  33.0150  0.00  0.00     0.000 C
ATOM     62  C5  IDS C   4      31.514   9.883  33.3770  0.00  0.00     0.000 C
ATOM     63  O5  IDS C   4      32.718  10.621  33.5310  0.00  0.00     0.000 O
ATOM     64   O  IDS C   4      30.497  11.118  30.6600  0.00  0.00     0.000 O
ATOM     66  HD  IDS C   4      30.361  10.270  30.7760  0.00  0.00     0.000 HD
BRANCH 59 66
ATOM     66   O  IDS C   4      32.270  13.390  32.7540  0.00  0.00     0.000 O
ATOM     67   S  IDS C   4      32.809  14.736  32.0980  0.00  0.00     0.000 S
ATOM     68   O  IDS C   4      31.788  15.062  31.1310  0.00  0.00     0.000 OA
ATOM     69   O  IDS C   4      32.924  15.669  33.2020  0.00  0.00     0.000 OA
ATOM     70   O  IDS C   4      34.077  14.424  31.4570  0.00  0.00     0.000 OA
ENDBRANCH 59 66
BRANCH 62 71
ATOM     71   C  IDS C   4      31.316   9.144  34.6870  0.00  0.00     0.000 C
ATOM     72   O  IDS C   4      30.506   8.241  34.7610  0.00  0.00     0.000 OA
ATOM     73   O  IDS C   4      31.922   9.554  35.6970  0.00  0.00     0.000 OA
ENDBRANCH 62 71
BRANCH 58 74
ATOM     74  O4  SGN C   5      33.487  10.276  31.2850  0.00  0.00     0.000 O
BRANCH 74 78
ATOM     75  C1  SGN C   5      36.361   7.602  29.8570  0.00  0.00     0.000 C
ATOM     76  C2  SGN C   5      35.601   7.165  31.1240  0.00  0.00     0.000 C
ATOM     77  C3  SGN C   5      34.364   8.045  31.3460  0.00  0.00     0.000 C
ATOM     78  C4  SGN C   5      34.700   9.525  31.2260  0.00  0.00     0.000 C
ATOM     79  C5  SGN C   5      35.421   9.776  29.9090  0.00  0.00     0.000 C
ATOM     80  O5  SGN C   5      36.644   8.995  29.8700  0.00  0.00     0.000 O
ATOM     81   O  SGN C   5      33.818   7.759  32.6290  0.00  0.00     0.000 O
ATOM     83  HD  SGN C   5      33.813   6.955  32.9530  0.00  0.00     0.000 HD
BRANCH 76 85
ATOM     83   N  SGN C   5      35.450   5.772  30.6840  0.00  0.00     0.000 N
ATOM     85  HD  SGN C   5      35.299   4.933  30.8330  0.00  0.00     0.000 HD
ATOM     85   S  SGN C   5      35.971   4.417  31.3810  0.00  0.00     0.000 S
ATOM     86   O  SGN C   5      35.561   3.282  30.6290  0.00  0.00     0.000 OA
ATOM     87   O  SGN C   5      37.363   4.572  31.6090  0.00  0.00     0.000 OA
ATOM     88   O  SGN C   5      35.135   4.552  32.6510  0.00  0.00     0.000 OA
ENDBRANCH 76 85
BRANCH 79 89
ATOM     89   C  SGN C   5      35.778  11.232  29.6850  0.00  0.00     0.000 C
ATOM     90   O  SGN C   5      36.597  11.710  30.7800  0.00  0.00     0.000 O
ATOM     91   S  SGN C   5      37.676  12.845  30.4300  0.00  0.00     0.000 S
ATOM     92   O  SGN C   5      38.445  12.347  29.3190  0.00  0.00     0.000 OA
ATOM     93   O  SGN C   5      36.942  14.040  30.0990  0.00  0.00     0.000 OA
ATOM     94   O  SGN C   5      38.436  12.964  31.6450  0.00  0.00     0.000 OA
ENDBRANCH 79 89
BRANCH 75 95
ATOM     95  O4  BDP C   6      35.534   7.311  28.8090  0.00  0.00     0.000 O
BRANCH 95 99
ATOM     96  C1  BDP C   6      36.362   6.797  24.6260  0.00  0.00     0.000 C
ATOM     97  C2  BDP C   6      37.359   6.285  25.6270  0.00  0.00     0.000 C
ATOM     98  C3  BDP C   6      36.815   6.166  27.0590  0.00  0.00     0.000 C
ATOM     99  C4  BDP C   6      36.093   7.436  27.4840  0.00  0.00     0.000 C
ATOM    100  C5  BDP C   6      35.085   7.808  26.3710  0.00  0.00     0.000 C
ATOM    101  O5  BDP C   6      35.916   8.004  25.2160  0.00  0.00     0.000 O
BRANCH 100 102
ATOM    102   C  BDP C   6      34.363   9.102  26.6490  0.00  0.00     0.000 C
ATOM    103   O  BDP C   6      33.284   9.140  27.2600  0.00  0.00     0.000 OA
ATOM    104   O  BDP C   6      34.902  10.140  26.2500  0.00  0.00     0.000 OA
ENDBRANCH 100 102
ENDBRANCH 95 99
ENDBRANCH 75 95
ENDBRANCH 74 78
ENDBRANCH 58 74
ENDBRANCH 57 61
ENDBRANCH 37 57
ENDBRANCH 36 40
ENDBRANCH 23 36
ENDBRANCH 22 26
ENDBRANCH 1 22
TORSDOF 20
ENDMDL
MODEL 16
REMARK VINA RESULT:      -6.5     15.017     19.994
ROOT
ATOM      1  C1  NGY C   1      29.392  35.267  21.0410  0.00  0.00     0.000 C
ATOM      2  C2  NGY C   1      29.091  34.833  22.4690  0.00  0.00     0.000 C
ATOM      3  C3  NGY C   1      27.590  34.889  22.7330  0.00  0.00     0.000 C
ATOM      4  C4  NGY C   1      27.098  36.283  22.3930  0.00  0.00     0.000 C
ATOM      5  C5  NGY C   1      27.386  36.558  20.9200  0.00  0.00     0.000 C
ATOM      6  O5  NGY C   1      28.824  36.519  20.7230  0.00  0.00     0.000 O
ATOM      7   O  NGY C   1      27.341  34.551  24.0890  0.00  0.00     0.000 O
ATOM      9  HD  NGY C   1      27.721  34.676  24.8570  0.00  0.00     0.000 HD
ATOM      9   O  NGY C   1      25.707  36.408  22.6500  0.00  0.00     0.000 O
ATOM     11  HD  NGY C   1      26.087  36.534  23.4180  0.00  0.00     0.000 HD
ENDROOT
BRANCH 2 13
ATOM     11   N  NGY C   1      29.874  33.626  22.5850  0.00  0.00     0.000 N
ATOM     13  HD  NGY C   1      30.003  33.631  23.4410  0.00  0.00     0.000 HD
ATOM     13   C  NGY C   1      30.330  33.199  23.7620  0.00  0.00     0.000 C
ATOM     14   O  NGY C   1      30.223  33.892  24.7750  0.00  0.00     0.000 OA
ATOM     15   C  NGY C   1      30.947  31.834  23.7900  0.00  0.00     0.000 C
ENDBRANCH 2 13
BRANCH 5 16
ATOM     16   C  NGY C   1      26.948  37.900  20.4270  0.00  0.00     0.000 C
ATOM     17   O  NGY C   1      27.917  39.310  17.1820  0.00  0.00     0.000 OA
ATOM     18   O  NGY C   1      27.679  38.215  19.2390  0.00  0.00     0.000 O
ATOM     19   S  NGY C   1      27.060  39.345  18.3390  0.00  0.00     0.000 S
ATOM     20   O  NGY C   1      27.175  40.581  19.0690  0.00  0.00     0.000 OA
ATOM     21   O  NGY C   1      25.685  38.926  18.1200  0.00  0.00     0.000 OA
ENDBRANCH 5 16
BRANCH 1 22
ATOM     22  O4  BDP C   2      29.000  34.289  20.1980  0.00  0.00     0.000 O
BRANCH 22 26
ATOM     23  C1  BDP C   2      29.525  32.180  16.6990  0.00  0.00     0.000 C
ATOM     24  C2  BDP C   2      30.792  32.528  17.4450  0.00  0.00     0.000 C
ATOM     25  C3  BDP C   2      30.451  32.957  18.8480  0.00  0.00     0.000 C
ATOM     26  C4  BDP C   2      29.409  34.069  18.8220  0.00  0.00     0.000 C
ATOM     27  C5  BDP C   2      28.259  33.680  17.9020  0.00  0.00     0.000 C
ATOM     28  O5  BDP C   2      28.700  33.370  16.5550  0.00  0.00     0.000 O
ATOM     29   O  BDP C   2      31.640  31.396  17.6350  0.00  0.00     0.000 O
ATOM     31  HD  BDP C   2      32.080  31.362  18.3800  0.00  0.00     0.000 HD
ATOM     31   O  BDP C   2      31.655  33.428  19.4390  0.00  0.00     0.000 O
ATOM     33  HD  BDP C   2      32.095  33.395  20.1850  0.00  0.00     0.000 HD
BRANCH 27 33
ATOM     33   C  BDP C   2      27.238  34.782  17.7560  0.00  0.00     0.000 C
ATOM     34   O  BDP C   2      27.463  35.812  17.0760  0.00  0.00     0.000 OA
ATOM     35   O  BDP C   2      26.177  34.673  18.3490  0.00  0.00     0.000 OA
ENDBRANCH 27 33
BRANCH 23 36
ATOM     36  O4  SGN C   3      29.704  31.654  15.4650  0.00  0.00     0.000 O
BRANCH 36 40
ATOM     37  C1  SGN C   3      28.261  28.821  12.7600  0.00  0.00     0.000 C
ATOM     38  C2  SGN C   3      27.778  30.271  12.6000  0.00  0.00     0.000 C
ATOM     39  C3  SGN C   3      28.700  31.224  13.3460  0.00  0.00     0.000 C
ATOM     40  C4  SGN C   3      28.775  30.797  14.7960  0.00  0.00     0.000 C
ATOM     41  C5  SGN C   3      29.234  29.357  14.8570  0.00  0.00     0.000 C
ATOM     42  O5  SGN C   3      28.307  28.522  14.1470  0.00  0.00     0.000 O
ATOM     43   O  SGN C   3      28.197  32.550  13.2310  0.00  0.00     0.000 O
ATOM     45  HD  SGN C   3      28.652  32.470  13.9640  0.00  0.00     0.000 HD
BRANCH 38 47
ATOM     45   N  SGN C   3      26.515  29.816  11.9920  0.00  0.00     0.000 N
ATOM     47  HD  SGN C   3      26.966  29.999  12.7090  0.00  0.00     0.000 HD
ATOM     47   S  SGN C   3      26.461  30.118  10.4330  0.00  0.00     0.000 S
ATOM     48   O  SGN C   3      26.429  31.514  10.1760  0.00  0.00     0.000 OA
ATOM     49   O  SGN C   3      27.526  29.381   9.8360  0.00  0.00     0.000 OA
ATOM     50   O  SGN C   3      25.156  29.567  10.0690  0.00  0.00     0.000 OA
ENDBRANCH 38 47
BRANCH 41 51
ATOM     51   C  SGN C   3      29.355  28.808  16.2530  0.00  0.00     0.000 C
ATOM     52   O  SGN C   3      32.482  27.854  18.0380  0.00  0.00     0.000 OA
ATOM     53   O  SGN C   3      30.459  28.796  18.9060  0.00  0.00     0.000 OA
ATOM     54   O  SGN C   3      30.460  26.602  17.9290  0.00  0.00     0.000 OA
ATOM     55   O  SGN C   3      30.720  28.630  16.5560  0.00  0.00     0.000 O
ATOM     56   S  SGN C   3      31.061  27.901  17.9920  0.00  0.00     0.000 S
ENDBRANCH 41 51
BRANCH 37 57
ATOM     57  O4  IDS C   4      29.484  28.570  12.2320  0.00  0.00     0.000 O
BRANCH 57 61
ATOM     58  C1  IDS C   4      31.210  25.683  10.4550  0.00  0.00     0.000 C
ATOM     59  C2  IDS C   4      29.724  25.638  10.6230  0.00  0.00     0.000 C
ATOM     60  C3  IDS C   4      29.267  26.147  11.9920  0.00  0.00     0.000 C
ATOM     61  C4  IDS C   4      30.061  27.300  12.5900  0.00  0.00     0.000 C
ATOM     62  C5  IDS C   4      31.532  27.226  12.1610  0.00  0.00     0.000 C
ATOM     63  O5  IDS C   4      31.663  26.989  10.7670  0.00  0.00     0.000 O
ATOM     64   O  IDS C   4      29.377  25.033  12.8590  0.00  0.00     0.000 O
ATOM     66  HD  IDS C   4      29.998  25.167  13.4470  0.00  0.00     0.000 HD
BRANCH 59 66
ATOM     66   O  IDS C   4      29.039  26.472   9.6170  0.00  0.00     0.000 O
ATOM     67   S  IDS C   4      28.474  25.719   8.3340  0.00  0.00     0.000 S
ATOM     68   O  IDS C   4      27.453  24.858   8.8820  0.00  0.00     0.000 OA
ATOM     69   O  IDS C   4      27.984  26.773   7.4680  0.00  0.00     0.000 OA
ATOM     70   O  IDS C   4      29.573  24.954   7.7650  0.00  0.00     0.000 OA
ENDBRANCH 59 66
BRANCH 62 71
ATOM     71   C  IDS C   4      32.295  28.509  12.4310  0.00  0.00     0.000 C
ATOM     72   O  IDS C   4      32.364  28.952  13.5620  0.00  0.00     0.000 OA
ATOM     73   O  IDS C   4      32.752  29.144  11.4600  0.00  0.00     0.000 OA
ENDBRANCH 62 71
BRANCH 58 74
ATOM     74  O4  SGN C   5      31.878  24.607  10.9600  0.00  0.00     0.000 O
BRANCH 74 78
ATOM     75  C1  SGN C   5      34.964  21.850  10.3940  0.00  0.00     0.000 C
ATOM     76  C2  SGN C   5      35.387  23.245  10.8940  0.00  0.00     0.000 C
ATOM     77  C3  SGN C   5      34.168  24.038  11.3840  0.00  0.00     0.000 C
ATOM     78  C4  SGN C   5      33.026  23.988  10.3790  0.00  0.00     0.000 C
ATOM     79  C5  SGN C   5      32.728  22.540  10.0190  0.00  0.00     0.000 C
ATOM     80  O5  SGN C   5      33.913  21.931   9.4400  0.00  0.00     0.000 O
ATOM     81   O  SGN C   5      34.561  25.384  11.6290  0.00  0.00     0.000 O
ATOM     83  HD  SGN C   5      35.337  25.578  11.9600  0.00  0.00     0.000 HD
BRANCH 76 85
ATOM     83   N  SGN C   5      36.376  22.676  11.8180  0.00  0.00     0.000 N
ATOM     85  HD  SGN C   5      37.059  22.743  12.3470  0.00  0.00     0.000 HD
ATOM     85   S  SGN C   5      37.952  22.983  11.9440  0.00  0.00     0.000 S
ATOM     86   O  SGN C   5      38.520  22.236  13.0130  0.00  0.00     0.000 OA
ATOM     87   O  SGN C   5      38.519  22.800  10.6560  0.00  0.00     0.000 OA
ATOM     88   O  SGN C   5      37.805  24.452  12.3340  0.00  0.00     0.000 OA
ENDBRANCH 76 85
BRANCH 79 89
ATOM     89   C  SGN C   5      31.584  22.384   9.0380  0.00  0.00     0.000 C
ATOM     90   O  SGN C   5      32.099  21.981   7.7450  0.00  0.00     0.000 O
ATOM     91   S  SGN C   5      31.146  21.053   6.8470  0.00  0.00     0.000 S
ATOM     92   O  SGN C   5      30.761  19.942   7.6780  0.00  0.00     0.000 OA
ATOM     93   O  SGN C   5      30.021  21.860   6.4510  0.00  0.00     0.000 OA
ATOM     94   O  SGN C   5      31.992  20.679   5.7460  0.00  0.00     0.000 OA
ENDBRANCH 79 89
BRANCH 75 95
ATOM     95  O4  BDP C   6      34.530  21.175  11.4990  0.00  0.00     0.000 O
BRANCH 95 99
ATOM     96  C1  BDP C   6      34.639  16.996  12.4880  0.00  0.00     0.000 C
ATOM     97  C2  BDP C   6      35.823  17.604  11.7900  0.00  0.00     0.000 C
ATOM     98  C3  BDP C   6      35.860  19.139  11.8240  0.00  0.00     0.000 C
ATOM     99  C4  BDP C   6      34.519  19.733  11.4190  0.00  0.00     0.000 C
ATOM    100  C5  BDP C   6      33.416  19.031  12.2460  0.00  0.00     0.000 C
ATOM    101  O5  BDP C   6      33.544  17.650  11.8740  0.00  0.00     0.000 O
BRANCH 100 102
ATOM    102   C  BDP C   6      32.029  19.487  11.8710  0.00  0.00     0.000 C
ATOM    103   O  BDP C   6      31.320  20.153  12.6390  0.00  0.00     0.000 OA
ATOM    104   O  BDP C   6      31.624  19.176  10.7440  0.00  0.00     0.000 OA
ENDBRANCH 100 102
ENDBRANCH 95 99
ENDBRANCH 75 95
ENDBRANCH 74 78
ENDBRANCH 58 74
ENDBRANCH 57 61
ENDBRANCH 37 57
ENDBRANCH 36 40
ENDBRANCH 23 36
ENDBRANCH 22 26
ENDBRANCH 1 22
TORSDOF 20
ENDMDL
MODEL 17
REMARK VINA RESULT:      -6.3     26.306     35.586
ROOT
ATOM      1  C1  NGY C   1      31.895   9.662  48.6210  0.00  0.00     0.000 C
ATOM      2  C2  NGY C   1      33.220  10.295  48.2210  0.00  0.00     0.000 C
ATOM      3  C3  NGY C   1      32.983  11.659  47.5820  0.00  0.00     0.000 C
ATOM      4  C4  NGY C   1      32.010  11.483  46.4320  0.00  0.00     0.000 C
ATOM      5  C5  NGY C   1      30.701  10.921  46.9790  0.00  0.00     0.000 C
ATOM      6  O5  NGY C   1      30.971   9.616  47.5540  0.00  0.00     0.000 O
ATOM      7   O  NGY C   1      34.225  12.196  47.1520  0.00  0.00     0.000 O
ATOM      9  HD  NGY C   1      34.964  11.900  46.8100  0.00  0.00     0.000 HD
ATOM      9   O  NGY C   1      31.773  12.718  45.7720  0.00  0.00     0.000 O
ATOM     11  HD  NGY C   1      32.511  12.421  45.4300  0.00  0.00     0.000 HD
ENDROOT
BRANCH 2 13
ATOM     11   N  NGY C   1      34.325  10.800  49.0010  0.00  0.00     0.000 N
ATOM     13  HD  NGY C   1      34.793  10.074  49.0580  0.00  0.00     0.000 HD
ATOM     13   C  NGY C   1      35.342  10.018  49.3600  0.00  0.00     0.000 C
ATOM     14   O  NGY C   1      35.311   8.802  49.1640  0.00  0.00     0.000 OA
ATOM     15   C  NGY C   1      36.524  10.696  49.9840  0.00  0.00     0.000 C
ENDBRANCH 2 13
BRANCH 5 16
ATOM     16   C  NGY C   1      29.629  10.699  45.9600  0.00  0.00     0.000 C
ATOM     17   O  NGY C   1      26.853   8.339  46.3860  0.00  0.00     0.000 OA
ATOM     18   O  NGY C   1      28.845   9.569  46.3560  0.00  0.00     0.000 O
ATOM     19   S  NGY C   1      27.433   9.451  45.6780  0.00  0.00     0.000 S
ATOM     20   O  NGY C   1      27.653   9.159  44.2850  0.00  0.00     0.000 OA
ATOM     21   O  NGY C   1      26.807  10.743  45.9090  0.00  0.00     0.000 OA
ENDBRANCH 5 16
BRANCH 1 22
ATOM     22  O4  BDP C   2      31.411  10.312  49.7000  0.00  0.00     0.000 O
BRANCH 22 26
ATOM     23  C1  BDP C   2      29.177   9.289  53.0060  0.00  0.00     0.000 C
ATOM     24  C2  BDP C   2      29.212   8.260  51.9010  0.00  0.00     0.000 C
ATOM     25  C3  BDP C   2      30.328   8.584  50.9430  0.00  0.00     0.000 C
ATOM     26  C4  BDP C   2      30.206  10.025  50.4580  0.00  0.00     0.000 C
ATOM     27  C5  BDP C   2      30.000  10.954  51.6470  0.00  0.00     0.000 C
ATOM     28  O5  BDP C   2      28.847  10.592  52.4480  0.00  0.00     0.000 O
ATOM     29   O  BDP C   2      29.549   6.958  52.3810  0.00  0.00     0.000 O
ATOM     31  HD  BDP C   2      30.033   6.465  51.8580  0.00  0.00     0.000 HD
ATOM     31   O  BDP C   2      30.205   7.687  49.8460  0.00  0.00     0.000 O
ATOM     33  HD  BDP C   2      30.689   7.195  49.3230  0.00  0.00     0.000 HD
BRANCH 27 33
ATOM     33   C  BDP C   2      29.774  12.387  51.2270  0.00  0.00     0.000 C
ATOM     34   O  BDP C   2      29.292  12.685  50.1080  0.00  0.00     0.000 OA
ATOM     35   O  BDP C   2      30.107  13.276  51.9940  0.00  0.00     0.000 OA
ENDBRANCH 27 33
BRANCH 23 36
ATOM     36  O4  SGN C   3      28.300   9.037  54.0050  0.00  0.00     0.000 O
BRANCH 36 40
ATOM     37  C1  SGN C   3      27.647   9.143  58.1270  0.00  0.00     0.000 C
ATOM     38  C2  SGN C   3      28.004  10.464  57.4260  0.00  0.00     0.000 C
ATOM     39  C3  SGN C   3      27.779  10.348  55.9260  0.00  0.00     0.000 C
ATOM     40  C4  SGN C   3      28.583   9.180  55.4000  0.00  0.00     0.000 C
ATOM     41  C5  SGN C   3      28.186   7.933  56.1580  0.00  0.00     0.000 C
ATOM     42  O5  SGN C   3      28.443   8.114  57.5590  0.00  0.00     0.000 O
ATOM     43   O  SGN C   3      28.172  11.562  55.2980  0.00  0.00     0.000 O
ATOM     45  HD  SGN C   3      28.256  10.902  54.7430  0.00  0.00     0.000 HD
BRANCH 38 47
ATOM     45   N  SGN C   3      28.668  11.095  58.5810  0.00  0.00     0.000 N
ATOM     47  HD  SGN C   3      28.736  10.631  57.8540  0.00  0.00     0.000 HD
ATOM     47   S  SGN C   3      27.715  12.125  59.3280  0.00  0.00     0.000 S
ATOM     48   O  SGN C   3      27.417  13.245  58.5060  0.00  0.00     0.000 OA
ATOM     49   O  SGN C   3      26.604  11.375  59.8150  0.00  0.00     0.000 OA
ATOM     50   O  SGN C   3      28.572  12.587  60.4180  0.00  0.00     0.000 OA
ENDBRANCH 38 47
BRANCH 41 51
ATOM     51   C  SGN C   3      28.914   6.690  55.7240  0.00  0.00     0.000 C
ATOM     52   O  SGN C   3      32.535   5.929  56.1650  0.00  0.00     0.000 OA
ATOM     53   O  SGN C   3      30.651   4.451  56.1990  0.00  0.00     0.000 OA
ATOM     54   O  SGN C   3      31.241   5.626  54.1890  0.00  0.00     0.000 OA
ATOM     55   O  SGN C   3      30.262   6.787  56.1290  0.00  0.00     0.000 O
ATOM     56   S  SGN C   3      31.265   5.585  55.6210  0.00  0.00     0.000 S
ENDBRANCH 41 51
BRANCH 37 57
ATOM     57  O4  IDS C   4      26.346   8.780  58.0210  0.00  0.00     0.000 O
BRANCH 57 61
ATOM     58  C1  IDS C   4      22.938   7.822  59.4140  0.00  0.00     0.000 C
ATOM     59  C2  IDS C   4      23.602   9.060  59.9290  0.00  0.00     0.000 C
ATOM     60  C3  IDS C   4      25.109   8.884  60.1270  0.00  0.00     0.000 C
ATOM     61  C4  IDS C   4      25.831   8.001  59.1180  0.00  0.00     0.000 C
ATOM     62  C5  IDS C   4      24.908   6.886  58.6130  0.00  0.00     0.000 C
ATOM     63  O5  IDS C   4      23.627   7.384  58.2550  0.00  0.00     0.000 O
ATOM     64   O  IDS C   4      25.251   8.301  61.4100  0.00  0.00     0.000 O
ATOM     66  HD  IDS C   4      25.556   7.494  61.3440  0.00  0.00     0.000 HD
BRANCH 59 66
ATOM     66   O  IDS C   4      23.432  10.192  58.9990  0.00  0.00     0.000 O
ATOM     67   S  IDS C   4      22.428  11.340  59.4530  0.00  0.00     0.000 S
ATOM     68   O  IDS C   4      23.068  11.893  60.6230  0.00  0.00     0.000 OA
ATOM     69   O  IDS C   4      22.350  12.239  58.3180  0.00  0.00     0.000 OA
ATOM     70   O  IDS C   4      21.164  10.700  59.7840  0.00  0.00     0.000 OA
ENDBRANCH 59 66
BRANCH 62 71
ATOM     71   C  IDS C   4      25.438   6.192  57.3730  0.00  0.00     0.000 C
ATOM     72   O  IDS C   4      24.948   6.428  56.2860  0.00  0.00     0.000 OA
ATOM     73   O  IDS C   4      26.305   5.306  57.5130  0.00  0.00     0.000 OA
ENDBRANCH 62 71
BRANCH 58 74
ATOM     74  O4  SGN C   5      22.599   6.912  60.3710  0.00  0.00     0.000 O
BRANCH 74 78
ATOM     75  C1  SGN C   5      20.038   3.797  61.4610  0.00  0.00     0.000 C
ATOM     76  C2  SGN C   5      20.961   3.524  60.2590  0.00  0.00     0.000 C
ATOM     77  C3  SGN C   5      22.070   4.581  60.1740  0.00  0.00     0.000 C
ATOM     78  C4  SGN C   5      21.510   5.992  60.3000  0.00  0.00     0.000 C
ATOM     79  C5  SGN C   5      20.648   6.085  61.5500  0.00  0.00     0.000 C
ATOM     80  O5  SGN C   5      19.554   5.134  61.4580  0.00  0.00     0.000 O
ATOM     81   O  SGN C   5      22.762   4.427  58.9390  0.00  0.00     0.000 O
ATOM     83  HD  SGN C   5      22.913   3.646  58.5980  0.00  0.00     0.000 HD
BRANCH 76 85
ATOM     83   N  SGN C   5      21.068   2.307  59.4440  0.00  0.00     0.000 N
ATOM     85  HD  SGN C   5      20.833   1.499  59.2370  0.00  0.00     0.000 HD
ATOM     85   S  SGN C   5      21.025   0.763  59.9000  0.00  0.00     0.000 S
ATOM     86   O  SGN C   5      21.119  -0.093  58.7690  0.00  0.00     0.000 OA
ATOM     87   O  SGN C   5      22.001   0.600  60.9170  0.00  0.00     0.000 OA
ATOM     88   O  SGN C   5      19.596   0.789  60.4370  0.00  0.00     0.000 OA
ENDBRANCH 76 85
BRANCH 79 89
ATOM     89   C  SGN C   5      20.061   7.464  61.7780  0.00  0.00     0.000 C
ATOM     90   O  SGN C   5      18.746   7.542  61.1750  0.00  0.00     0.000 O
ATOM     91   S  SGN C   5      17.682   8.507  61.8910  0.00  0.00     0.000 S
ATOM     92   O  SGN C   5      17.650   8.119  63.2770  0.00  0.00     0.000 OA
ATOM     93   O  SGN C   5      18.145   9.858  61.7090  0.00  0.00     0.000 OA
ATOM     94   O  SGN C   5      16.458   8.227  61.1900  0.00  0.00     0.000 OA
ENDBRANCH 79 89
BRANCH 75 95
ATOM     95  O4  BDP C   6      20.804   3.589  62.5730  0.00  0.00     0.000 O
BRANCH 95 99
ATOM     96  C1  BDP C   6      19.735   1.986  66.4110  0.00  0.00     0.000 C
ATOM     97  C2  BDP C   6      19.010   1.486  65.1930  0.00  0.00     0.000 C
ATOM     98  C3  BDP C   6      19.703   1.817  63.8630  0.00  0.00     0.000 C
ATOM     99  C4  BDP C   6      20.105   3.284  63.7990  0.00  0.00     0.000 C
ATOM    100  C5  BDP C   6      20.866   3.628  65.1000  0.00  0.00     0.000 C
ATOM    101  O5  BDP C   6      19.903   3.364  66.1330  0.00  0.00     0.000 O
BRANCH 100 102
ATOM    102   C  BDP C   6      21.247   5.085  65.1830  0.00  0.00     0.000 C
ATOM    103   O  BDP C   6      22.371   5.494  64.8580  0.00  0.00     0.000 OA
ATOM    104   O  BDP C   6      20.377   5.868  65.5810  0.00  0.00     0.000 OA
ENDBRANCH 100 102
ENDBRANCH 95 99
ENDBRANCH 75 95
ENDBRANCH 74 78
ENDBRANCH 58 74
ENDBRANCH 57 61
ENDBRANCH 37 57
ENDBRANCH 36 40
ENDBRANCH 23 36
ENDBRANCH 22 26
ENDBRANCH 1 22
TORSDOF 20
ENDMDL
MODEL 18
REMARK VINA RESULT:      -6.1     25.528     32.054
ROOT
ATOM      1  C1  NGY C   1      36.366  44.582   4.9090  0.00  0.00     0.000 C
ATOM      2  C2  NGY C   1      36.868  43.614   3.8470  0.00  0.00     0.000 C
ATOM      3  C3  NGY C   1      37.450  42.365   4.5020  0.00  0.00     0.000 C
ATOM      4  C4  NGY C   1      38.512  42.800   5.4940  0.00  0.00     0.000 C
ATOM      5  C5  NGY C   1      37.862  43.694   6.5460  0.00  0.00     0.000 C
ATOM      6  O5  NGY C   1      37.346  44.876   5.8820  0.00  0.00     0.000 O
ATOM      7   O  NGY C   1      37.977  41.513   3.4950  0.00  0.00     0.000 O
ATOM      9  HD  NGY C   1      38.391  41.599   2.7400  0.00  0.00     0.000 HD
ATOM      9   O  NGY C   1      39.117  41.675   6.1150  0.00  0.00     0.000 O
ATOM     11  HD  NGY C   1      39.532  41.762   5.3590  0.00  0.00     0.000 HD
ENDROOT
BRANCH 2 13
ATOM     11   N  NGY C   1      35.757  43.571   2.9260  0.00  0.00     0.000 N
ATOM     13  HD  NGY C   1      36.190  43.380   2.2010  0.00  0.00     0.000 HD
ATOM     13   C  NGY C   1      35.931  43.305   1.6320  0.00  0.00     0.000 C
ATOM     14   O  NGY C   1      37.060  43.227   1.1450  0.00  0.00     0.000 OA
ATOM     15   C  NGY C   1      34.694  43.081   0.8180  0.00  0.00     0.000 C
ENDBRANCH 2 13
BRANCH 5 16
ATOM     16   C  NGY C   1      38.786  44.199   7.6080  0.00  0.00     0.000 C
ATOM     17   O  NGY C   1      38.800  47.655   8.8390  0.00  0.00     0.000 OA
ATOM     18   O  NGY C   1      38.667  45.622   7.6830  0.00  0.00     0.000 O
ATOM     19   S  NGY C   1      39.201  46.281   9.0060  0.00  0.00     0.000 S
ATOM     20   O  NGY C   1      40.631  46.124   9.0120  0.00  0.00     0.000 OA
ATOM     21   O  NGY C   1      38.532  45.553  10.0730  0.00  0.00     0.000 OA
ENDBRANCH 5 16
BRANCH 1 22
ATOM     22  O4  BDP C   2      35.232  44.085   5.4480  0.00  0.00     0.000 O
BRANCH 22 26
ATOM     23  C1  BDP C   2      31.531  44.763   7.1230  0.00  0.00     0.000 C
ATOM     24  C2  BDP C   2      31.956  45.752   6.0630  0.00  0.00     0.000 C
ATOM     25  C3  BDP C   2      33.124  45.196   5.2920  0.00  0.00     0.000 C
ATOM     26  C4  BDP C   2      34.237  44.778   6.2470  0.00  0.00     0.000 C
ATOM     27  C5  BDP C   2      33.661  43.928   7.3710  0.00  0.00     0.000 C
ATOM     28  O5  BDP C   2      32.601  44.601   8.0970  0.00  0.00     0.000 O
ATOM     29   O  BDP C   2      30.954  45.944   5.0650  0.00  0.00     0.000 O
ATOM     31  HD  BDP C   2      31.233  46.070   4.2550  0.00  0.00     0.000 HD
ATOM     31   O  BDP C   2      33.581  46.231   4.4310  0.00  0.00     0.000 O
ATOM     33  HD  BDP C   2      33.860  46.356   3.6210  0.00  0.00     0.000 HD
BRANCH 27 33
ATOM     33   C  BDP C   2      34.698  43.562   8.4070  0.00  0.00     0.000 C
ATOM     34   O  BDP C   2      34.901  42.374   8.7550  0.00  0.00     0.000 OA
ATOM     35   O  BDP C   2      35.327  44.460   8.9410  0.00  0.00     0.000 OA
ENDBRANCH 27 33
BRANCH 23 36
ATOM     36  O4  SGN C   3      30.406  45.089   7.8020  0.00  0.00     0.000 O
BRANCH 36 40
ATOM     37  C1  SGN C   3      26.810  43.691   9.3980  0.00  0.00     0.000 C
ATOM     38  C2  SGN C   3      28.117  43.127   9.9790  0.00  0.00     0.000 C
ATOM     39  C3  SGN C   3      29.291  44.026   9.6210  0.00  0.00     0.000 C
ATOM     40  C4  SGN C   3      29.347  44.180   8.1160  0.00  0.00     0.000 C
ATOM     41  C5  SGN C   3      28.019  44.717   7.6310  0.00  0.00     0.000 C
ATOM     42  O5  SGN C   3      26.967  43.808   7.9920  0.00  0.00     0.000 O
ATOM     43   O  SGN C   3      30.492  43.449  10.1190  0.00  0.00     0.000 O
ATOM     45  HD  SGN C   3      30.665  43.936   9.4240  0.00  0.00     0.000 HD
BRANCH 38 47
ATOM     45   N  SGN C   3      27.151  42.083  10.3650  0.00  0.00     0.000 N
ATOM     47  HD  SGN C   3      27.570  42.505   9.7350  0.00  0.00     0.000 HD
ATOM     47   S  SGN C   3      27.236  41.734  11.9140  0.00  0.00     0.000 S
ATOM     48   O  SGN C   3      28.478  41.128  12.2410  0.00  0.00     0.000 OA
ATOM     49   O  SGN C   3      26.899  42.927  12.6200  0.00  0.00     0.000 OA
ATOM     50   O  SGN C   3      26.194  40.717  12.0470  0.00  0.00     0.000 OA
ENDBRANCH 38 47
BRANCH 41 51
ATOM     51   C  SGN C   3      27.944  44.922   6.1420  0.00  0.00     0.000 C
ATOM     52   O  SGN C   3      24.974  44.442   3.9460  0.00  0.00     0.000 OA
ATOM     53   O  SGN C   3      26.756  46.031   3.7730  0.00  0.00     0.000 OA
ATOM     54   O  SGN C   3      27.193  43.682   3.5350  0.00  0.00     0.000 OA
ATOM     55   O  SGN C   3      26.623  44.679   5.7150  0.00  0.00     0.000 O
ATOM     56   S  SGN C   3      26.364  44.711   4.0900  0.00  0.00     0.000 S
ENDBRANCH 41 51
BRANCH 37 57
ATOM     57  O4  IDS C   4      26.452  44.904   9.8860  0.00  0.00     0.000 O
BRANCH 57 61
ATOM     58  C1  IDS C   4      24.165  47.397  11.6260  0.00  0.00     0.000 C
ATOM     59  C2  IDS C   4      24.588  46.171  12.3700  0.00  0.00     0.000 C
ATOM     60  C3  IDS C   4      24.605  44.920  11.4880  0.00  0.00     0.000 C
ATOM     61  C4  IDS C   4      25.035  45.113  10.0400  0.00  0.00     0.000 C
ATOM     62  C5  IDS C   4      24.627  46.501   9.5330  0.00  0.00     0.000 C
ATOM     63  O5  IDS C   4      24.964  47.521  10.4620  0.00  0.00     0.000 O
ATOM     64   O  IDS C   4      23.274  44.440  11.4970  0.00  0.00     0.000 O
ATOM     66  HD  IDS C   4      22.918  44.518  10.7110  0.00  0.00     0.000 HD
BRANCH 59 66
ATOM     66   O  IDS C   4      25.950  46.313  12.9200  0.00  0.00     0.000 O
ATOM     67   S  IDS C   4      26.073  46.370  14.5050  0.00  0.00     0.000 S
ATOM     68   O  IDS C   4      25.624  45.062  14.9180  0.00  0.00     0.000 OA
ATOM     69   O  IDS C   4      27.474  46.644  14.7610  0.00  0.00     0.000 OA
ATOM     70   O  IDS C   4      25.176  47.417  14.9690  0.00  0.00     0.000 OA
ENDBRANCH 59 66
BRANCH 62 71
ATOM     71   C  IDS C   4      25.314  46.886   8.2360  0.00  0.00     0.000 C
ATOM     72   O  IDS C   4      26.285  47.618   8.2530  0.00  0.00     0.000 OA
ATOM     73   O  IDS C   4      24.799  46.520   7.1600  0.00  0.00     0.000 OA
ENDBRANCH 62 71
BRANCH 58 74
ATOM     74  O4  SGN C   5      22.817  47.575  11.5300  0.00  0.00     0.000 O
BRANCH 74 78
ATOM     75  C1  SGN C   5      19.722  50.334  11.0220  0.00  0.00     0.000 C
ATOM     76  C2  SGN C   5      20.847  50.379   9.9710  0.00  0.00     0.000 C
ATOM     77  C3  SGN C   5      21.725  49.124  10.0610  0.00  0.00     0.000 C
ATOM     78  C4  SGN C   5      22.140  48.832  11.4960  0.00  0.00     0.000 C
ATOM     79  C5  SGN C   5      20.906  48.799  12.3850  0.00  0.00     0.000 C
ATOM     80  O5  SGN C   5      20.231  50.084  12.3260  0.00  0.00     0.000 O
ATOM     81   O  SGN C   5      22.871  49.302   9.2350  0.00  0.00     0.000 O
ATOM     83  HD  SGN C   5      22.825  49.717   8.4770  0.00  0.00     0.000 HD
BRANCH 76 85
ATOM     83   N  SGN C   5      20.740  50.664   8.5350  0.00  0.00     0.000 N
ATOM     85  HD  SGN C   5      20.680  51.207   7.8630  0.00  0.00     0.000 HD
ATOM     85   S  SGN C   5      19.846  51.768   7.7750  0.00  0.00     0.000 S
ATOM     86   O  SGN C   5      20.086  51.723   6.3740  0.00  0.00     0.000 OA
ATOM     87   O  SGN C   5      18.506  51.591   8.2070  0.00  0.00     0.000 OA
ATOM     88   O  SGN C   5      20.523  52.986   8.3980  0.00  0.00     0.000 OA
ENDBRANCH 76 85
BRANCH 79 89
ATOM     89   C  SGN C   5      21.214  48.490  13.8360  0.00  0.00     0.000 C
ATOM     90   O  SGN C   5      20.306  47.472  14.3240  0.00  0.00     0.000 O
ATOM     91   S  SGN C   5      20.874  46.480  15.4510  0.00  0.00     0.000 S
ATOM     92   O  SGN C   5      22.106  45.943  14.9360  0.00  0.00     0.000 OA
ATOM     93   O  SGN C   5      21.071  47.263  16.6440  0.00  0.00     0.000 OA
ATOM     94   O  SGN C   5      19.832  45.498  15.5820  0.00  0.00     0.000 OA
ENDBRANCH 79 89
BRANCH 75 95
ATOM     95  O4  BDP C   6      18.902  49.307  10.6450  0.00  0.00     0.000 O
BRANCH 95 99
ATOM     96  C1  BDP C   6      14.664  49.536  11.3000  0.00  0.00     0.000 C
ATOM     97  C2  BDP C   6      15.546  50.589  11.9100  0.00  0.00     0.000 C
ATOM     98  C3  BDP C   6      16.963  50.649  11.3190  0.00  0.00     0.000 C
ATOM     99  C4  BDP C   6      17.591  49.265  11.2490  0.00  0.00     0.000 C
ATOM    100  C5  BDP C   6      16.579  48.314  10.5690  0.00  0.00     0.000 C
ATOM    101  O5  BDP C   6      15.437  48.359  11.4400  0.00  0.00     0.000 O
BRANCH 100 102
ATOM    102   C  BDP C   6      17.066  46.888  10.5150  0.00  0.00     0.000 C
ATOM    103   O  BDP C   6      18.256  46.602  10.3170  0.00  0.00     0.000 OA
ATOM    104   O  BDP C   6      16.222  46.002  10.6910  0.00  0.00     0.000 OA
ENDBRANCH 100 102
ENDBRANCH 95 99
ENDBRANCH 75 95
ENDBRANCH 74 78
ENDBRANCH 58 74
ENDBRANCH 57 61
ENDBRANCH 37 57
ENDBRANCH 36 40
ENDBRANCH 23 36
ENDBRANCH 22 26
ENDBRANCH 1 22
TORSDOF 20
ENDMDL
MODEL 19
REMARK VINA RESULT:      -6.1     28.728     34.466
ROOT
ATOM      1  C1  NGY C   1      18.236  13.008  61.0400  0.00  0.00     0.000 C
ATOM      2  C2  NGY C   1      17.948  14.015  62.1450  0.00  0.00     0.000 C
ATOM      3  C3  NGY C   1      18.210  13.389  63.5110  0.00  0.00     0.000 C
ATOM      4  C4  NGY C   1      17.400  12.111  63.6120  0.00  0.00     0.000 C
ATOM      5  C5  NGY C   1      17.842  11.161  62.5030  0.00  0.00     0.000 C
ATOM      6  O5  NGY C   1      17.552  11.787  61.2260  0.00  0.00     0.000 O
ATOM      7   O  NGY C   1      17.866  14.321  64.5260  0.00  0.00     0.000 O
ATOM      9  HD  NGY C   1      17.262  14.928  64.6550  0.00  0.00     0.000 HD
ATOM      9   O  NGY C   1      17.576  11.496  64.8800  0.00  0.00     0.000 O
ATOM     11  HD  NGY C   1      16.972  12.103  65.0100  0.00  0.00     0.000 HD
ENDROOT
BRANCH 2 13
ATOM     11   N  NGY C   1      18.526  15.197  61.5510  0.00  0.00     0.000 N
ATOM     13  HD  NGY C   1      18.162  15.795  62.0600  0.00  0.00     0.000 HD
ATOM     13   C  NGY C   1      18.249  16.416  62.0100  0.00  0.00     0.000 C
ATOM     14   O  NGY C   1      17.380  16.592  62.8660  0.00  0.00     0.000 OA
ATOM     15   C  NGY C   1      19.063  17.545  61.4550  0.00  0.00     0.000 C
ENDBRANCH 2 13
BRANCH 5 16
ATOM     16   C  NGY C   1      17.135   9.843  62.4760  0.00  0.00     0.000 C
ATOM     17   O  NGY C   1      15.066   8.684  59.6770  0.00  0.00     0.000 OA
ATOM     18   O  NGY C   1      16.258   9.815  61.3460  0.00  0.00     0.000 O
ATOM     19   S  NGY C   1      15.778   8.389  60.8940  0.00  0.00     0.000 S
ATOM     20   O  NGY C   1      14.912   7.884  61.9280  0.00  0.00     0.000 OA
ATOM     21   O  NGY C   1      17.004   7.622  60.7380  0.00  0.00     0.000 OA
ENDBRANCH 5 16
BRANCH 1 22
ATOM     22  O4  BDP C   2      19.572  12.844  60.9380  0.00  0.00     0.000 O
BRANCH 22 26
ATOM     23  C1  BDP C   2      22.958  11.963  58.7660  0.00  0.00     0.000 C
ATOM     24  C2  BDP C   2      22.231  13.221  58.3530  0.00  0.00     0.000 C
ATOM     25  C3  BDP C   2      21.255  13.617  59.4300  0.00  0.00     0.000 C
ATOM     26  C4  BDP C   2      20.343  12.445  59.7740  0.00  0.00     0.000 C
ATOM     27  C5  BDP C   2      21.176  11.190  59.9990  0.00  0.00     0.000 C
ATOM     28  O5  BDP C   2      22.013  10.861  58.8610  0.00  0.00     0.000 O
ATOM     29   O  BDP C   2      23.102  14.348  58.2570  0.00  0.00     0.000 O
ATOM     31  HD  BDP C   2      22.775  15.112  58.4980  0.00  0.00     0.000 HD
ATOM     31   O  BDP C   2      20.489  14.699  58.9160  0.00  0.00     0.000 O
ATOM     33  HD  BDP C   2      20.161  15.464  59.1570  0.00  0.00     0.000 HD
BRANCH 27 33
ATOM     33   C  BDP C   2      20.324   9.968  60.2480  0.00  0.00     0.000 C
ATOM     34   O  BDP C   2      20.556   9.176  61.1920  0.00  0.00     0.000 OA
ATOM     35   O  BDP C   2      19.405   9.735  59.4800  0.00  0.00     0.000 OA
ENDBRANCH 27 33
BRANCH 23 36
ATOM     36  O4  SGN C   3      23.958  11.575  57.9400  0.00  0.00     0.000 O
BRANCH 36 40
ATOM     37  C1  SGN C   3      27.792   9.933  57.7520  0.00  0.00     0.000 C
ATOM     38  C2  SGN C   3      26.764   9.245  58.6650  0.00  0.00     0.000 C
ATOM     39  C3  SGN C   3      25.352   9.674  58.2950  0.00  0.00     0.000 C
ATOM     40  C4  SGN C   3      25.266  11.184  58.3640  0.00  0.00     0.000 C
ATOM     41  C5  SGN C   3      26.323  11.774  57.4570  0.00  0.00     0.000 C
ATOM     42  O5  SGN C   3      27.624  11.336  57.8790  0.00  0.00     0.000 O
ATOM     43   O  SGN C   3      24.428   9.070  59.1930  0.00  0.00     0.000 O
ATOM     45  HD  SGN C   3      24.104   9.814  58.8920  0.00  0.00     0.000 HD
BRANCH 38 47
ATOM     45   N  SGN C   3      27.027   8.327  59.7880  0.00  0.00     0.000 N
ATOM     47  HD  SGN C   3      26.536   8.952  59.4440  0.00  0.00     0.000 HD
ATOM     47   S  SGN C   3      28.056   7.181  59.3940  0.00  0.00     0.000 S
ATOM     48   O  SGN C   3      27.510   6.308  58.4160  0.00  0.00     0.000 OA
ATOM     49   O  SGN C   3      29.282   7.830  59.0610  0.00  0.00     0.000 OA
ATOM     50   O  SGN C   3      28.164   6.436  60.6470  0.00  0.00     0.000 OA
ENDBRANCH 38 47
BRANCH 41 51
ATOM     51   C  SGN C   3      26.341  13.278  57.4310  0.00  0.00     0.000 C
ATOM     52   O  SGN C   3      28.188  15.470  55.0510  0.00  0.00     0.000 OA
ATOM     53   O  SGN C   3      26.066  15.813  56.1060  0.00  0.00     0.000 OA
ATOM     54   O  SGN C   3      28.075  15.706  57.4180  0.00  0.00     0.000 OA
ATOM     55   O  SGN C   3      27.125  13.706  56.3390  0.00  0.00     0.000 O
ATOM     56   S  SGN C   3      27.388  15.326  56.2190  0.00  0.00     0.000 S
ENDBRANCH 41 51
BRANCH 37 57
ATOM     57  O4  IDS C   4      27.687   9.611  56.4390  0.00  0.00     0.000 O
BRANCH 57 61
ATOM     58  C1  IDS C   4      30.093   8.191  53.8570  0.00  0.00     0.000 C
ATOM     59  C2  IDS C   4      30.517   8.226  55.2910  0.00  0.00     0.000 C
ATOM     60  C3  IDS C   4      30.090   9.512  56.0040  0.00  0.00     0.000 C
ATOM     61  C4  IDS C   4      28.747  10.102  55.5970  0.00  0.00     0.000 C
ATOM     62  C5  IDS C   4      28.452   9.815  54.1200  0.00  0.00     0.000 C
ATOM     63  O5  IDS C   4      28.702   8.457  53.7870  0.00  0.00     0.000 O
ATOM     64   O  IDS C   4      31.101  10.456  55.7040  0.00  0.00     0.000 O
ATOM     66  HD  IDS C   4      30.787  11.088  55.2030  0.00  0.00     0.000 HD
BRANCH 59 66
ATOM     66   O  IDS C   4      29.930   7.109  56.0570  0.00  0.00     0.000 O
ATOM     67   S  IDS C   4      30.778   5.764  56.1140  0.00  0.00     0.000 S
ATOM     68   O  IDS C   4      31.963   6.152  56.8410  0.00  0.00     0.000 OA
ATOM     69   O  IDS C   4      29.925   4.814  56.7990  0.00  0.00     0.000 OA
ATOM     70   O  IDS C   4      31.089   5.393  54.7420  0.00  0.00     0.000 OA
ENDBRANCH 59 66
BRANCH 62 71
ATOM     71   C  IDS C   4      27.005  10.068  53.7430  0.00  0.00     0.000 C
ATOM     72   O  IDS C   4      26.298   9.147  53.3810  0.00  0.00     0.000 OA
ATOM     73   O  IDS C   4      26.597  11.246  53.7130  0.00  0.00     0.000 OA
ENDBRANCH 62 71
BRANCH 58 74
ATOM     74  O4  SGN C   5      30.936   8.824  52.9930  0.00  0.00     0.000 O
BRANCH 74 78
ATOM     75  C1  SGN C   5      32.648   8.821  49.1830  0.00  0.00     0.000 C
ATOM     76  C2  SGN C   5      31.109   8.863  49.2320  0.00  0.00     0.000 C
ATOM     77  C3  SGN C   5      30.621   9.204  50.6470  0.00  0.00     0.000 C
ATOM     78  C4  SGN C   5      31.316   8.353  51.7000  0.00  0.00     0.000 C
ATOM     79  C5  SGN C   5      32.824   8.450  51.5170  0.00  0.00     0.000 C
ATOM     80  O5  SGN C   5      33.183   7.975  50.1930  0.00  0.00     0.000 O
ATOM     81   O  SGN C   5      29.210   9.017  50.7050  0.00  0.00     0.000 O
ATOM     83  HD  SGN C   5      28.698   9.214  50.0350  0.00  0.00     0.000 HD
BRANCH 76 85
ATOM     83   N  SGN C   5      31.296   9.148  47.8040  0.00  0.00     0.000 N
ATOM     85  HD  SGN C   5      31.179   9.635  47.0980  0.00  0.00     0.000 HD
ATOM     85   S  SGN C   5      30.244   9.728  46.7310  0.00  0.00     0.000 S
ATOM     86   O  SGN C   5      30.866   9.891  45.4630  0.00  0.00     0.000 OA
ATOM     87   O  SGN C   5      29.092   8.901  46.7840  0.00  0.00     0.000 OA
ATOM     88   O  SGN C   5      30.044  11.081  47.4100  0.00  0.00     0.000 OA
ENDBRANCH 76 85
BRANCH 79 89
ATOM     89   C  SGN C   5      33.609   7.653  52.5380  0.00  0.00     0.000 C
ATOM     90   O  SGN C   5      33.321   6.242  52.3850  0.00  0.00     0.000 O
ATOM     91   S  SGN C   5      34.504   5.220  52.7510  0.00  0.00     0.000 S
ATOM     92   O  SGN C   5      35.656   5.650  52.0020  0.00  0.00     0.000 OA
ATOM     93   O  SGN C   5      34.709   5.302  54.1740  0.00  0.00     0.000 OA
ATOM     94   O  SGN C   5      33.986   3.949  52.3240  0.00  0.00     0.000 OA
ENDBRANCH 79 89
BRANCH 75 95
ATOM     95  O4  BDP C   6      33.062  10.106  49.3950  0.00  0.00     0.000 O
BRANCH 95 99
ATOM     96  C1  BDP C   6      36.618  11.779  47.6610  0.00  0.00     0.000 C
ATOM     97  C2  BDP C   6      36.243  10.365  47.3170  0.00  0.00     0.000 C
ATOM     98  C3  BDP C   6      34.794   9.991  47.6620  0.00  0.00     0.000 C
ATOM     99  C4  BDP C   6      34.439  10.407  49.0820  0.00  0.00     0.000 C
ATOM    100  C5  BDP C   6      34.852  11.886  49.2640  0.00  0.00     0.000 C
ATOM    101  O5  BDP C   6      36.270  11.871  49.0300  0.00  0.00     0.000 O
BRANCH 100 102
ATOM    102   C  BDP C   6      34.618  12.387  50.6670  0.00  0.00     0.000 C
ATOM    103   O  BDP C   6      33.573  12.964  50.9980  0.00  0.00     0.000 OA
ATOM    104   O  BDP C   6      35.519  12.184  51.4900  0.00  0.00     0.000 OA
ENDBRANCH 100 102
ENDBRANCH 95 99
ENDBRANCH 75 95
ENDBRANCH 74 78
ENDBRANCH 58 74
ENDBRANCH 57 61
ENDBRANCH 37 57
ENDBRANCH 36 40
ENDBRANCH 23 36
ENDBRANCH 22 26
ENDBRANCH 1 22
TORSDOF 20
ENDMDL
MODEL 20
REMARK VINA RESULT:      -6.0     17.704     30.442
ROOT
ATOM      1  C1  NGY C   1      45.410   7.132  40.6580  0.00  0.00     0.000 C
ATOM      2  C2  NGY C   1      46.365   8.307  40.5020  0.00  0.00     0.000 C
ATOM      3  C3  NGY C   1      47.452   7.974  39.4850  0.00  0.00     0.000 C
ATOM      4  C4  NGY C   1      48.124   6.684  39.9130  0.00  0.00     0.000 C
ATOM      5  C5  NGY C   1      47.077   5.574  39.9490  0.00  0.00     0.000 C
ATOM      6  O5  NGY C   1      46.080   5.923  40.9440  0.00  0.00     0.000 O
ATOM      7   O  NGY C   1      48.369   9.056  39.4120  0.00  0.00     0.000 O
ATOM      9  HD  NGY C   1      48.721   9.631  39.9550  0.00  0.00     0.000 HD
ATOM      9   O  NGY C   1      49.173   6.337  39.0200  0.00  0.00     0.000 O
ATOM     11  HD  NGY C   1      49.525   6.912  39.5640  0.00  0.00     0.000 HD
ENDROOT
BRANCH 2 13
ATOM     11   N  NGY C   1      45.986   9.466  41.2760  0.00  0.00     0.000 N
ATOM     13  HD  NGY C   1      45.941  10.047  40.6350  0.00  0.00     0.000 HD
ATOM     13   C  NGY C   1      45.793  10.654  40.7050  0.00  0.00     0.000 C
ATOM     14   O  NGY C   1      46.068  10.843  39.5190  0.00  0.00     0.000 OA
ATOM     15   C  NGY C   1      45.203  11.727  41.5690  0.00  0.00     0.000 C
ENDBRANCH 2 13
BRANCH 5 16
ATOM     16   C  NGY C   1      47.592   4.228  40.3470  0.00  0.00     0.000 C
ATOM     17   O  NGY C   1      48.216   3.216  43.8180  0.00  0.00     0.000 OA
ATOM     18   O  NGY C   1      47.920   4.254  41.7390  0.00  0.00     0.000 O
ATOM     19   S  NGY C   1      48.045   2.851  42.4350  0.00  0.00     0.000 S
ATOM     20   O  NGY C   1      49.212   2.209  41.8890  0.00  0.00     0.000 OA
ATOM     21   O  NGY C   1      46.802   2.169  42.1100  0.00  0.00     0.000 OA
ENDBRANCH 5 16
BRANCH 1 22
ATOM     22  O4  BDP C   2      44.639   7.049  39.5530  0.00  0.00     0.000 O
BRANCH 22 26
ATOM     23  C1  BDP C   2      41.053   6.185  37.7210  0.00  0.00     0.000 C
ATOM     24  C2  BDP C   2      40.968   7.109  38.9140  0.00  0.00     0.000 C
ATOM     25  C3  BDP C   2      42.341   7.626  39.2510  0.00  0.00     0.000 C
ATOM     26  C4  BDP C   2      43.316   6.465  39.4210  0.00  0.00     0.000 C
ATOM     27  C5  BDP C   2      43.189   5.508  38.2440  0.00  0.00     0.000 C
ATOM     28  O5  BDP C   2      41.838   5.010  38.0680  0.00  0.00     0.000 O
ATOM     29   O  BDP C   2      40.221   8.293  38.6330  0.00  0.00     0.000 O
ATOM     31  HD  BDP C   2      40.496   9.022  39.0110  0.00  0.00     0.000 HD
ATOM     31   O  BDP C   2      42.223   8.347  40.4710  0.00  0.00     0.000 O
ATOM     33  HD  BDP C   2      42.497   9.077  40.8500  0.00  0.00     0.000 HD
BRANCH 27 33
ATOM     33   C  BDP C   2      44.060   4.284  38.3990  0.00  0.00     0.000 C
ATOM     34   O  BDP C   2      44.034   3.575  39.4340  0.00  0.00     0.000 OA
ATOM     35   O  BDP C   2      44.833   4.003  37.4980  0.00  0.00     0.000 OA
ENDBRANCH 27 33
BRANCH 23 36
ATOM     36  O4  SGN C   3      39.865   5.755  37.2360  0.00  0.00     0.000 O
BRANCH 36 40
ATOM     37  C1  SGN C   3      37.625   5.071  33.7800  0.00  0.00     0.000 C
ATOM     38  C2  SGN C   3      38.559   3.948  34.2590  0.00  0.00     0.000 C
ATOM     39  C3  SGN C   3      38.949   4.165  35.7140  0.00  0.00     0.000 C
ATOM     40  C4  SGN C   3      39.576   5.536  35.8530  0.00  0.00     0.000 C
ATOM     41  C5  SGN C   3      38.600   6.572  35.3380  0.00  0.00     0.000 C
ATOM     42  O5  SGN C   3      38.295   6.309  33.9600  0.00  0.00     0.000 O
ATOM     43   O  SGN C   3      39.859   3.147  36.1120  0.00  0.00     0.000 O
ATOM     45  HD  SGN C   3      39.994   3.862  36.5810  0.00  0.00     0.000 HD
BRANCH 38 47
ATOM     45   N  SGN C   3      38.503   3.551  32.8410  0.00  0.00     0.000 N
ATOM     47  HD  SGN C   3      38.795   4.101  33.4430  0.00  0.00     0.000 HD
ATOM     47   S  SGN C   3      37.943   2.075  32.6560  0.00  0.00     0.000 S
ATOM     48   O  SGN C   3      38.833   1.112  33.2000  0.00  0.00     0.000 OA
ATOM     49   O  SGN C   3      36.611   2.076  33.1650  0.00  0.00     0.000 OA
ATOM     50   O  SGN C   3      37.964   1.930  31.2010  0.00  0.00     0.000 OA
ENDBRANCH 38 47
BRANCH 41 51
ATOM     51   C  SGN C   3      39.103   7.987  35.4250  0.00  0.00     0.000 C
ATOM     52   O  SGN C   3      42.415   9.276  34.3080  0.00  0.00     0.000 OA
ATOM     53   O  SGN C   3      40.278  10.354  34.2970  0.00  0.00     0.000 OA
ATOM     54   O  SGN C   3      41.322   9.743  36.3710  0.00  0.00     0.000 OA
ATOM     55   O  SGN C   3      40.387   8.051  34.8440  0.00  0.00     0.000 O
ATOM     56   S  SGN C   3      41.173   9.491  34.9680  0.00  0.00     0.000 S
ENDBRANCH 41 51
BRANCH 37 57
ATOM     57  O4  IDS C   4      36.437   5.134  34.4290  0.00  0.00     0.000 O
BRANCH 57 61
ATOM     58  C1  IDS C   4      33.079   6.072  32.9070  0.00  0.00     0.000 C
ATOM     59  C2  IDS C   4      34.288   6.058  32.0260  0.00  0.00     0.000 C
ATOM     60  C3  IDS C   4      35.531   6.625  32.7170  0.00  0.00     0.000 C
ATOM     61  C4  IDS C   4      35.674   6.336  34.2050  0.00  0.00     0.000 C
ATOM     62  C5  IDS C   4      34.299   6.245  34.8760  0.00  0.00     0.000 C
ATOM     63  O5  IDS C   4      33.401   5.435  34.1320  0.00  0.00     0.000 O
ATOM     64   O  IDS C   4      35.446   8.027  32.5420  0.00  0.00     0.000 O
ATOM     66  HD  IDS C   4      35.318   8.420  33.3030  0.00  0.00     0.000 HD
BRANCH 59 66
ATOM     66   O  IDS C   4      34.635   4.687  31.6030  0.00  0.00     0.000 O
ATOM     67   S  IDS C   4      34.959   4.482  30.0580  0.00  0.00     0.000 S
ATOM     68   O  IDS C   4      36.159   5.260  29.8680  0.00  0.00     0.000 OA
ATOM     69   O  IDS C   4      35.128   3.051  29.9000  0.00  0.00     0.000 OA
ATOM     70   O  IDS C   4      33.840   5.028  29.3070  0.00  0.00     0.000 OA
ENDBRANCH 59 66
BRANCH 62 71
ATOM     71   C  IDS C   4      34.353   5.629  36.2610  0.00  0.00     0.000 C
ATOM     72   O  IDS C   4      34.962   6.186  37.1540  0.00  0.00     0.000 OA
ATOM     73   O  IDS C   4      33.850   4.500  36.4290  0.00  0.00     0.000 OA
ENDBRANCH 62 71
BRANCH 58 74
ATOM     74  O4  SGN C   5      32.398   7.253  32.9290  0.00  0.00     0.000 O
BRANCH 74 78
ATOM     75  C1  SGN C   5      28.693   9.067  33.5800  0.00  0.00     0.000 C
ATOM     76  C2  SGN C   5      29.131   8.030  34.6310  0.00  0.00     0.000 C
ATOM     77  C3  SGN C   5      30.621   7.697  34.4760  0.00  0.00     0.000 C
ATOM     78  C4  SGN C   5      30.981   7.398  33.0270  0.00  0.00     0.000 C
ATOM     79  C5  SGN C   5      30.497   8.535  32.1390  0.00  0.00     0.000 C
ATOM     80  O5  SGN C   5      29.056   8.668  32.2650  0.00  0.00     0.000 O
ATOM     81   O  SGN C   5      30.935   6.585  35.3090  0.00  0.00     0.000 O
ATOM     83  HD  SGN C   5      30.570   6.484  36.0880  0.00  0.00     0.000 HD
BRANCH 76 85
ATOM     83   N  SGN C   5      27.927   8.502  35.3260  0.00  0.00     0.000 N
ATOM     85  HD  SGN C   5      27.527   8.896  35.9850  0.00  0.00     0.000 HD
ATOM     85   S  SGN C   5      27.572   8.465  36.8960  0.00  0.00     0.000 S
ATOM     86   O  SGN C   5      26.309   9.075  37.1350  0.00  0.00     0.000 OA
ATOM     87   O  SGN C   5      27.733   7.124  37.3310  0.00  0.00     0.000 OA
ATOM     88   O  SGN C   5      28.706   9.384  37.3440  0.00  0.00     0.000 OA
ENDBRANCH 76 85
BRANCH 79 89
ATOM     89   C  SGN C   5      30.831   8.341  30.6740  0.00  0.00     0.000 C
ATOM     90   O  SGN C   5      31.438   9.546  30.1460  0.00  0.00     0.000 O
ATOM     91   S  SGN C   5      32.516   9.355  28.9730  0.00  0.00     0.000 S
ATOM     92   O  SGN C   5      33.478   8.399  29.4560  0.00  0.00     0.000 OA
ATOM     93   O  SGN C   5      31.802   8.881  27.8150  0.00  0.00     0.000 OA
ATOM     94   O  SGN C   5      33.057  10.676  28.8040  0.00  0.00     0.000 OA
ENDBRANCH 79 89
BRANCH 75 95
ATOM     95  O4  BDP C   6      29.344  10.224  33.9050  0.00  0.00     0.000 O
BRANCH 95 99
ATOM     96  C1  BDP C   6      28.372  14.281  32.8850  0.00  0.00     0.000 C
ATOM     97  C2  BDP C   6      27.260  13.274  32.9790  0.00  0.00     0.000 C
ATOM     98  C3  BDP C   6      27.640  11.977  33.7080  0.00  0.00     0.000 C
ATOM     99  C4  BDP C   6      28.954  11.415  33.1870  0.00  0.00     0.000 C
ATOM    100  C5  BDP C   6      29.996  12.558  33.1860  0.00  0.00     0.000 C
ATOM    101  O5  BDP C   6      29.423  13.534  32.3010  0.00  0.00     0.000 O
BRANCH 100 102
ATOM    102   C  BDP C   6      31.324  12.134  32.6130  0.00  0.00     0.000 C
ATOM    103   O  BDP C   6      31.656  12.394  31.4470  0.00  0.00     0.000 OA
ATOM    104   O  BDP C   6      32.087  11.518  33.3660  0.00  0.00     0.000 OA
ENDBRANCH 100 102
ENDBRANCH 95 99
ENDBRANCH 75 95
ENDBRANCH 74 78
ENDBRANCH 58 74
ENDBRANCH 57 61
ENDBRANCH 37 57
ENDBRANCH 36 40
ENDBRANCH 23 36
ENDBRANCH 22 26
ENDBRANCH 1 22
TORSDOF 20
ENDMDL
MODEL 21
REMARK VINA RESULT:      -5.9     17.017     23.389
ROOT
ATOM      1  C1  NGY C   1      25.639  17.510  43.9040  0.00  0.00     0.000 C
ATOM      2  C2  NGY C   1      25.089  17.742  45.3040  0.00  0.00     0.000 C
ATOM      3  C3  NGY C   1      23.677  17.176  45.4180  0.00  0.00     0.000 C
ATOM      4  C4  NGY C   1      22.831  17.783  44.3140  0.00  0.00     0.000 C
ATOM      5  C5  NGY C   1      23.443  17.408  42.9670  0.00  0.00     0.000 C
ATOM      6  O5  NGY C   1      24.773  17.986  42.8950  0.00  0.00     0.000 O
ATOM      7   O  NGY C   1      23.159  17.468  46.7080  0.00  0.00     0.000 O
ATOM      9  HD  NGY C   1      23.201  18.118  47.2790  0.00  0.00     0.000 HD
ATOM      9   O  NGY C   1      21.491  17.319  44.3870  0.00  0.00     0.000 O
ATOM     11  HD  NGY C   1      21.533  17.968  44.9580  0.00  0.00     0.000 HD
ENDROOT
BRANCH 2 13
ATOM     11   N  NGY C   1      25.472  17.191  46.5830  0.00  0.00     0.000 N
ATOM     13  HD  NGY C   1      26.047  17.793  46.8220  0.00  0.00     0.000 HD
ATOM     13   C  NGY C   1      26.374  17.789  47.3590  0.00  0.00     0.000 C
ATOM     14   O  NGY C   1      27.021  18.757  46.9540  0.00  0.00     0.000 OA
ATOM     15   C  NGY C   1      26.537  17.244  48.7450  0.00  0.00     0.000 C
ENDBRANCH 2 13
BRANCH 5 16
ATOM     16   C  NGY C   1      22.712  17.928  41.7700  0.00  0.00     0.000 C
ATOM     17   O  NGY C   1      23.989  20.580  39.5800  0.00  0.00     0.000 OA
ATOM     18   O  NGY C   1      23.391  19.090  41.2860  0.00  0.00     0.000 O
ATOM     19   S  NGY C   1      23.053  19.509  39.8100  0.00  0.00     0.000 S
ATOM     20   O  NGY C   1      21.687  19.963  39.7980  0.00  0.00     0.000 OA
ATOM     21   O  NGY C   1      23.270  18.302  39.0280  0.00  0.00     0.000 OA
ENDBRANCH 5 16
BRANCH 1 22
ATOM     22  O4  BDP C   2      25.930  16.200  43.7620  0.00  0.00     0.000 O
BRANCH 22 26
ATOM     23  C1  BDP C   2      28.129  13.136  42.1080  0.00  0.00     0.000 C
ATOM     24  C2  BDP C   2      28.899  14.080  43.0000  0.00  0.00     0.000 C
ATOM     25  C3  BDP C   2      27.937  14.906  43.8120  0.00  0.00     0.000 C
ATOM     26  C4  BDP C   2      26.924  15.588  42.8990  0.00  0.00     0.000 C
ATOM     27  C5  BDP C   2      26.339  14.571  41.9260  0.00  0.00     0.000 C
ATOM     28  O5  BDP C   2      27.356  13.899  41.1390  0.00  0.00     0.000 O
ATOM     29   O  BDP C   2      29.668  13.392  43.9860  0.00  0.00     0.000 O
ATOM     31  HD  BDP C   2      29.734  13.773  44.7610  0.00  0.00     0.000 HD
ATOM     31   O  BDP C   2      28.709  15.883  44.5000  0.00  0.00     0.000 O
ATOM     33  HD  BDP C   2      28.774  16.263  45.2750  0.00  0.00     0.000 HD
BRANCH 27 33
ATOM     33   C  BDP C   2      25.399  15.202  40.9270  0.00  0.00     0.000 C
ATOM     34   O  BDP C   2      24.228  14.786  40.7610  0.00  0.00     0.000 OA
ATOM     35   O  BDP C   2      25.812  16.123  40.2420  0.00  0.00     0.000 OA
ENDBRANCH 27 33
BRANCH 23 36
ATOM     36  O4  SGN C   3      28.881  12.245  41.4200  0.00  0.00     0.000 O
BRANCH 36 40
ATOM     37  C1  SGN C   3      28.961   8.345  39.9330  0.00  0.00     0.000 C
ATOM     38  C2  SGN C   3      27.617   9.091  39.9100  0.00  0.00     0.000 C
ATOM     39  C3  SGN C   3      27.837  10.589  40.0610  0.00  0.00     0.000 C
ATOM     40  C4  SGN C   3      28.616  10.843  41.3330  0.00  0.00     0.000 C
ATOM     41  C5  SGN C   3      29.907  10.055  41.2800  0.00  0.00     0.000 C
ATOM     42  O5  SGN C   3      29.616   8.655  41.1540  0.00  0.00     0.000 O
ATOM     43   O  SGN C   3      26.576  11.246  40.0950  0.00  0.00     0.000 O
ATOM     45  HD  SGN C   3      27.163  11.710  40.5320  0.00  0.00     0.000 HD
BRANCH 38 47
ATOM     45   N  SGN C   3      27.069   7.723  39.9090  0.00  0.00     0.000 N
ATOM     47  HD  SGN C   3      27.458   8.362  40.3450  0.00  0.00     0.000 HD
ATOM     47   S  SGN C   3      26.161   7.444  38.6340  0.00  0.00     0.000 S
ATOM     48   O  SGN C   3      24.983   8.238  38.6530  0.00  0.00     0.000 OA
ATOM     49   O  SGN C   3      27.006   7.579  37.4930  0.00  0.00     0.000 OA
ATOM     50   O  SGN C   3      25.765   6.053  38.8490  0.00  0.00     0.000 OA
ENDBRANCH 38 47
BRANCH 41 51
ATOM     51   C  SGN C   3      30.782  10.225  42.4920  0.00  0.00     0.000 C
ATOM     52   O  SGN C   3      29.989   9.252  46.0000  0.00  0.00     0.000 OA
ATOM     53   O  SGN C   3      32.091   9.245  44.8540  0.00  0.00     0.000 OA
ATOM     54   O  SGN C   3      30.937  11.310  45.2670  0.00  0.00     0.000 OA
ATOM     55   O  SGN C   3      30.121   9.678  43.6110  0.00  0.00     0.000 O
ATOM     56   S  SGN C   3      30.854   9.893  45.0690  0.00  0.00     0.000 S
ENDBRANCH 41 51
BRANCH 37 57
ATOM     57  O4  IDS C   4      29.798   8.655  38.9130  0.00  0.00     0.000 O
BRANCH 57 61
ATOM     58  C1  IDS C   4      32.086   7.655  36.0430  0.00  0.00     0.000 C
ATOM     59  C2  IDS C   4      30.795   6.921  36.2210  0.00  0.00     0.000 C
ATOM     60  C3  IDS C   4      30.469   6.647  37.6910  0.00  0.00     0.000 C
ATOM     61  C4  IDS C   4      30.872   7.721  38.6910  0.00  0.00     0.000 C
ATOM     62  C5  IDS C   4      32.141   8.446  38.2270  0.00  0.00     0.000 C
ATOM     63  O5  IDS C   4      32.066   8.815  36.8570  0.00  0.00     0.000 O
ATOM     64   O  IDS C   4      31.164   5.456  38.0110  0.00  0.00     0.000 O
ATOM     66  HD  IDS C   4      31.795   5.618  38.5830  0.00  0.00     0.000 HD
BRANCH 59 66
ATOM     66   O  IDS C   4      29.657   7.685  35.6760  0.00  0.00     0.000 O
ATOM     67   S  IDS C   4      28.917   7.056  34.4160  0.00  0.00     0.000 S
ATOM     68   O  IDS C   4      28.348   5.838  34.9430  0.00  0.00     0.000 OA
ATOM     69   O  IDS C   4      27.949   8.057  34.0120  0.00  0.00     0.000 OA
ATOM     70   O  IDS C   4      29.934   6.782  33.4120  0.00  0.00     0.000 OA
ENDBRANCH 59 66
BRANCH 62 71
ATOM     71   C  IDS C   4      32.401   9.735  38.9840  0.00  0.00     0.000 C
ATOM     72   O  IDS C   4      33.185   9.749  39.9130  0.00  0.00     0.000 OA
ATOM     73   O  IDS C   4      31.718  10.739  38.6980  0.00  0.00     0.000 OA
ENDBRANCH 62 71
BRANCH 58 74
ATOM     74  O4  SGN C   5      33.199   6.868  36.0330  0.00  0.00     0.000 O
BRANCH 74 78
ATOM     75  C1  SGN C   5      37.215   6.634  34.9120  0.00  0.00     0.000 C
ATOM     76  C2  SGN C   5      36.945   7.013  36.3810  0.00  0.00     0.000 C
ATOM     77  C3  SGN C   5      35.482   6.733  36.7520  0.00  0.00     0.000 C
ATOM     78  C4  SGN C   5      34.522   7.295  35.7120  0.00  0.00     0.000 C
ATOM     79  C5  SGN C   5      34.924   6.800  34.3310  0.00  0.00     0.000 C
ATOM     80  O5  SGN C   5      36.276   7.239  34.0330  0.00  0.00     0.000 O
ATOM     81   O  SGN C   5      35.216   7.294  38.0330  0.00  0.00     0.000 O
ATOM     83  HD  SGN C   5      35.808   7.287  38.6650  0.00  0.00     0.000 HD
BRANCH 76 85
ATOM     83   N  SGN C   5      38.333   7.324  36.7440  0.00  0.00     0.000 N
ATOM     85  HD  SGN C   5      39.147   7.093  36.9310  0.00  0.00     0.000 HD
ATOM     85   S  SGN C   5      39.312   6.572  37.7790  0.00  0.00     0.000 S
ATOM     86   O  SGN C   5      40.593   7.188  37.7870  0.00  0.00     0.000 OA
ATOM     87   O  SGN C   5      38.627   6.488  39.0190  0.00  0.00     0.000 OA
ATOM     88   O  SGN C   5      39.359   5.244  37.0260  0.00  0.00     0.000 OA
ENDBRANCH 76 85
BRANCH 79 89
ATOM     89   C  SGN C   5      34.010   7.288  33.2250  0.00  0.00     0.000 C
ATOM     90   O  SGN C   5      34.417   6.708  31.9620  0.00  0.00     0.000 O
ATOM     91   S  SGN C   5      33.257   6.436  30.8860  0.00  0.00     0.000 S
ATOM     92   O  SGN C   5      32.246   5.668  31.5650  0.00  0.00     0.000 OA
ATOM     93   O  SGN C   5      32.773   7.721  30.4520  0.00  0.00     0.000 OA
ATOM     94   O  SGN C   5      33.932   5.704  29.8500  0.00  0.00     0.000 OA
ENDBRANCH 79 89
BRANCH 75 95
ATOM     95  O4  BDP C   6      37.094   5.275  34.8500  0.00  0.00     0.000 O
BRANCH 95 99
ATOM     96  C1  BDP C   6      38.839   2.485  32.0900  0.00  0.00     0.000 C
ATOM     97  C2  BDP C   6      39.583   3.753  32.4020  0.00  0.00     0.000 C
ATOM     98  C3  BDP C   6      39.086   4.487  33.6560  0.00  0.00     0.000 C
ATOM     99  C4  BDP C   6      37.572   4.633  33.6480  0.00  0.00     0.000 C
ATOM    100  C5  BDP C   6      36.960   3.244  33.3510  0.00  0.00     0.000 C
ATOM    101  O5  BDP C   6      37.490   2.912  32.0570  0.00  0.00     0.000 O
BRANCH 100 102
ATOM    102   C  BDP C   6      35.457   3.282  33.2410  0.00  0.00     0.000 C
ATOM    103   O  BDP C   6      34.716   3.082  34.2140  0.00  0.00     0.000 OA
ATOM    104   O  BDP C   6      34.985   3.536  32.1260  0.00  0.00     0.000 OA
ENDBRANCH 100 102
ENDBRANCH 95 99
ENDBRANCH 75 95
ENDBRANCH 74 78
ENDBRANCH 58 74
ENDBRANCH 57 61
ENDBRANCH 37 57
ENDBRANCH 36 40
ENDBRANCH 23 36
ENDBRANCH 22 26
ENDBRANCH 1 22
TORSDOF 20
ENDMDL
MODEL 22
REMARK VINA RESULT:      -5.8      2.106      2.790
ROOT
ATOM      1  C1  NGY C   1      16.733  30.727  21.9190  0.00  0.00     0.000 C
ATOM      2  C2  NGY C   1      16.482  32.218  22.1010  0.00  0.00     0.000 C
ATOM      3  C3  NGY C   1      15.041  32.462  22.5380  0.00  0.00     0.000 C
ATOM      4  C4  NGY C   1      14.120  31.798  21.5330  0.00  0.00     0.000 C
ATOM      5  C5  NGY C   1      14.418  30.302  21.5090  0.00  0.00     0.000 C
ATOM      6  O5  NGY C   1      15.788  30.118  21.0660  0.00  0.00     0.000 O
ATOM      7   O  NGY C   1      14.812  33.861  22.6300  0.00  0.00     0.000 O
ATOM      9  HD  NGY C   1      15.055  34.576  22.2060  0.00  0.00     0.000 HD
ATOM      9   O  NGY C   1      12.758  32.019  21.8690  0.00  0.00     0.000 O
ATOM     11  HD  NGY C   1      13.001  32.734  21.4440  0.00  0.00     0.000 HD
ENDROOT
BRANCH 2 13
ATOM     11   N  NGY C   1      16.840  33.539  22.5610  0.00  0.00     0.000 N
ATOM     13  HD  NGY C   1      17.695  33.426  22.6420  0.00  0.00     0.000 HD
ATOM     13   C  NGY C   1      18.102  33.864  22.8370  0.00  0.00     0.000 C
ATOM     14   O  NGY C   1      18.991  33.011  22.8490  0.00  0.00     0.000 OA
ATOM     15   C  NGY C   1      18.381  35.312  23.1030  0.00  0.00     0.000 C
ENDBRANCH 2 13
BRANCH 5 16
ATOM     16   C  NGY C   1      13.578  29.501  20.5660  0.00  0.00     0.000 C
ATOM     17   O  NGY C   1       9.911  29.603  20.4970  0.00  0.00     0.000 OA
ATOM     18   O  NGY C   1      12.208  29.619  20.9590  0.00  0.00     0.000 O
ATOM     19   S  NGY C   1      11.151  29.234  19.8610  0.00  0.00     0.000 S
ATOM     20   O  NGY C   1      11.256  27.814  19.6490  0.00  0.00     0.000 OA
ATOM     21   O  NGY C   1      11.525  30.024  18.7000  0.00  0.00     0.000 OA
ENDBRANCH 5 16
BRANCH 1 22
ATOM     22  O4  BDP C   2      16.786  30.145  23.1360  0.00  0.00     0.000 O
BRANCH 22 26
ATOM     23  C1  BDP C   2      18.638  27.506  25.6990  0.00  0.00     0.000 C
ATOM     24  C2  BDP C   2      19.549  28.207  24.7180  0.00  0.00     0.000 C
ATOM     25  C3  BDP C   2      18.829  29.382  24.1110  0.00  0.00     0.000 C
ATOM     26  C4  BDP C   2      17.493  28.937  23.5240  0.00  0.00     0.000 C
ATOM     27  C5  BDP C   2      16.737  28.092  24.5420  0.00  0.00     0.000 C
ATOM     28  O5  BDP C   2      17.499  26.942  24.9910  0.00  0.00     0.000 O
ATOM     29   O  BDP C   2      20.682  28.798  25.3540  0.00  0.00     0.000 O
ATOM     31  HD  BDP C   2      20.960  29.550  25.0270  0.00  0.00     0.000 HD
ATOM     31   O  BDP C   2      19.667  29.894  23.0830  0.00  0.00     0.000 O
ATOM     33  HD  BDP C   2      19.946  30.646  22.7560  0.00  0.00     0.000 HD
BRANCH 27 33
ATOM     33   C  BDP C   2      15.447  27.538  23.9870  0.00  0.00     0.000 C
ATOM     34   O  BDP C   2      15.429  26.680  23.0720  0.00  0.00     0.000 OA
ATOM     35   O  BDP C   2      14.394  27.969  24.4270  0.00  0.00     0.000 OA
ENDBRANCH 27 33
BRANCH 23 36
ATOM     36  O4  SGN C   3      19.212  26.509  26.4120  0.00  0.00     0.000 O
BRANCH 36 40
ATOM     37  C1  SGN C   3      19.632  24.757  30.1780  0.00  0.00     0.000 C
ATOM     38  C2  SGN C   3      18.222  24.807  29.5670  0.00  0.00     0.000 C
ATOM     39  C3  SGN C   3      18.301  25.056  28.0680  0.00  0.00     0.000 C
ATOM     40  C4  SGN C   3      19.081  26.330  27.8250  0.00  0.00     0.000 C
ATOM     41  C5  SGN C   3      20.440  26.202  28.4770  0.00  0.00     0.000 C
ATOM     42  O5  SGN C   3      20.281  25.985  29.8880  0.00  0.00     0.000 O
ATOM     43   O  SGN C   3      16.984  25.156  27.5390  0.00  0.00     0.000 O
ATOM     45  HD  SGN C   3      17.534  25.614  27.0510  0.00  0.00     0.000 HD
BRANCH 38 47
ATOM     45   N  SGN C   3      16.900  24.623  30.1910  0.00  0.00     0.000 N
ATOM     47  HD  SGN C   3      17.375  24.970  29.5550  0.00  0.00     0.000 HD
ATOM     47   S  SGN C   3      16.902  23.445  31.2580  0.00  0.00     0.000 S
ATOM     48   O  SGN C   3      17.118  22.185  30.6390  0.00  0.00     0.000 OA
ATOM     49   O  SGN C   3      17.822  23.822  32.2810  0.00  0.00     0.000 OA
ATOM     50   O  SGN C   3      15.522  23.476  31.7380  0.00  0.00     0.000 OA
ENDBRANCH 38 47
BRANCH 41 51
ATOM     51   C  SGN C   3      21.321  27.409  28.3040  0.00  0.00     0.000 C
ATOM     52   O  SGN C   3      20.956  30.726  29.9610  0.00  0.00     0.000 OA
ATOM     53   O  SGN C   3      22.942  29.554  29.3180  0.00  0.00     0.000 OA
ATOM     54   O  SGN C   3      21.388  30.320  27.6550  0.00  0.00     0.000 OA
ATOM     55   O  SGN C   3      20.859  28.437  29.1520  0.00  0.00     0.000 O
ATOM     56   S  SGN C   3      21.607  29.896  29.0060  0.00  0.00     0.000 S
ENDBRANCH 41 51
BRANCH 37 57
ATOM     57  O4  IDS C   4      20.412  23.747  29.7200  0.00  0.00     0.000 O
BRANCH 57 61
ATOM     58  C1  IDS C   4      22.666  21.191  31.4110  0.00  0.00     0.000 C
ATOM     59  C2  IDS C   4      21.792  22.054  32.2650  0.00  0.00     0.000 C
ATOM     60  C3  IDS C   4      21.723  23.501  31.7690  0.00  0.00     0.000 C
ATOM     61  C4  IDS C   4      21.747  23.705  30.2610  0.00  0.00     0.000 C
ATOM     62  C5  IDS C   4      22.580  22.615  29.5780  0.00  0.00     0.000 C
ATOM     63  O5  IDS C   4      22.253  21.320  30.0610  0.00  0.00     0.000 O
ATOM     64   O  IDS C   4      22.858  24.139  32.3230  0.00  0.00     0.000 O
ATOM     66  HD  IDS C   4      23.417  24.359  31.6990  0.00  0.00     0.000 HD
BRANCH 59 66
ATOM     66   O  IDS C   4      20.403  21.557  32.2970  0.00  0.00     0.000 O
ATOM     67   S  IDS C   4      19.825  21.154  33.7240  0.00  0.00     0.000 S
ATOM     68   O  IDS C   4      19.803  22.410  34.4350  0.00  0.00     0.000 OA
ATOM     69   O  IDS C   4      18.521  20.583  33.4520  0.00  0.00     0.000 OA
ATOM     70   O  IDS C   4      20.765  20.217  34.3200  0.00  0.00     0.000 OA
ENDBRANCH 59 66
BRANCH 62 71
ATOM     71   C  IDS C   4      22.368  22.556  28.0770  0.00  0.00     0.000 C
ATOM     72   O  IDS C   4      22.753  23.467  27.3700  0.00  0.00     0.000 OA
ATOM     73   O  IDS C   4      21.702  21.611  27.6080  0.00  0.00     0.000 OA
ENDBRANCH 62 71
BRANCH 58 74
ATOM     74  O4  SGN C   5      23.995  21.245  31.7100  0.00  0.00     0.000 O
BRANCH 74 78
ATOM     75  C1  SGN C   5      27.632  19.195  31.7900  0.00  0.00     0.000 C
ATOM     76  C2  SGN C   5      27.146  19.654  30.4020  0.00  0.00     0.000 C
ATOM     77  C3  SGN C   5      26.006  20.672  30.5370  0.00  0.00     0.000 C
ATOM     78  C4  SGN C   5      24.939  20.193  31.5120  0.00  0.00     0.000 C
ATOM     79  C5  SGN C   5      25.594  19.807  32.8300  0.00  0.00     0.000 C
ATOM     80  O5  SGN C   5      26.555  18.743  32.6010  0.00  0.00     0.000 O
ATOM     81   O  SGN C   5      25.440  20.903  29.2510  0.00  0.00     0.000 O
ATOM     83  HD  SGN C   5      25.929  20.926  28.5370  0.00  0.00     0.000 HD
BRANCH 76 85
ATOM     83   N  SGN C   5      27.794  19.713  29.0860  0.00  0.00     0.000 N
ATOM     85  HD  SGN C   5      28.375  19.441  28.5050  0.00  0.00     0.000 HD
ATOM     85   S  SGN C   5      29.354  19.581  28.7070  0.00  0.00     0.000 S
ATOM     86   O  SGN C   5      29.531  19.653  27.2980  0.00  0.00     0.000 OA
ATOM     87   O  SGN C   5      30.058  20.528  29.4960  0.00  0.00     0.000 OA
ATOM     88   O  SGN C   5      29.523  18.145  29.1970  0.00  0.00     0.000 OA
ENDBRANCH 76 85
BRANCH 79 89
ATOM     89   C  SGN C   5      24.606  19.338  33.8800  0.00  0.00     0.000 C
ATOM     90   O  SGN C   5      23.876  18.188  33.3870  0.00  0.00     0.000 O
ATOM     91   S  SGN C   5      23.405  17.110  34.4790  0.00  0.00     0.000 S
ATOM     92   O  SGN C   5      24.579  16.757  35.2330  0.00  0.00     0.000 OA
ATOM     93   O  SGN C   5      22.398  17.743  35.2910  0.00  0.00     0.000 OA
ATOM     94   O  SGN C   5      22.893  16.031  33.6780  0.00  0.00     0.000 OA
ENDBRANCH 79 89
BRANCH 75 95
ATOM     95  O4  BDP C   6      28.210  20.292  32.3640  0.00  0.00     0.000 O
BRANCH 95 99
ATOM     96  C1  BDP C   6      31.626  20.497  34.9590  0.00  0.00     0.000 C
ATOM     97  C2  BDP C   6      31.504  19.332  34.0170  0.00  0.00     0.000 C
ATOM     98  C3  BDP C   6      30.484  19.535  32.8870  0.00  0.00     0.000 C
ATOM     99  C4  BDP C   6      29.157  20.049  33.4270  0.00  0.00     0.000 C
ATOM    100  C5  BDP C   6      29.451  21.261  34.3420  0.00  0.00     0.000 C
ATOM    101  O5  BDP C   6      30.289  20.710  35.3710  0.00  0.00     0.000 O
BRANCH 100 102
ATOM    102   C  BDP C   6      28.209  21.808  34.9980  0.00  0.00     0.000 C
ATOM    103   O  BDP C   6      27.896  23.005  34.9300  0.00  0.00     0.000 OA
ATOM    104   O  BDP C   6      27.496  21.000  35.6060  0.00  0.00     0.000 OA
ENDBRANCH 100 102
ENDBRANCH 95 99
ENDBRANCH 75 95
ENDBRANCH 74 78
ENDBRANCH 58 74
ENDBRANCH 57 61
ENDBRANCH 37 57
ENDBRANCH 36 40
ENDBRANCH 23 36
ENDBRANCH 22 26
ENDBRANCH 1 22
TORSDOF 20
ENDMDL
MODEL 23
REMARK VINA RESULT:      -5.7     18.722     30.799
ROOT
ATOM      1  C1  NGY C   1      44.489   5.769  41.3890  0.00  0.00     0.000 C
ATOM      2  C2  NGY C   1      45.733   6.635  41.5230  0.00  0.00     0.000 C
ATOM      3  C3  NGY C   1      46.936   5.933  40.9030  0.00  0.00     0.000 C
ATOM      4  C4  NGY C   1      47.066   4.562  41.5380  0.00  0.00     0.000 C
ATOM      5  C5  NGY C   1      45.792   3.770  41.2600  0.00  0.00     0.000 C
ATOM      6  O5  NGY C   1      44.681   4.462  41.8880  0.00  0.00     0.000 O
ATOM      7   O  NGY C   1      48.096   6.727  41.1050  0.00  0.00     0.000 O
ATOM      9  HD  NGY C   1      48.416   7.243  41.7230  0.00  0.00     0.000 HD
ATOM      9   O  NGY C   1      48.194   3.868  41.0230  0.00  0.00     0.000 O
ATOM     11  HD  NGY C   1      48.513   4.384  41.6420  0.00  0.00     0.000 HD
ENDROOT
BRANCH 2 13
ATOM     11   N  NGY C   1      45.238   7.922  41.0940  0.00  0.00     0.000 N
ATOM     13  HD  NGY C   1      45.798   8.429  41.5180  0.00  0.00     0.000 HD
ATOM     13   C  NGY C   1      45.800   9.058  41.5040  0.00  0.00     0.000 C
ATOM     14   O  NGY C   1      46.671   9.060  42.3760  0.00  0.00     0.000 OA
ATOM     15   C  NGY C   1      45.340  10.317  40.8340  0.00  0.00     0.000 C
ENDBRANCH 2 13
BRANCH 5 16
ATOM     16   C  NGY C   1      45.771   2.383  41.8180  0.00  0.00     0.000 C
ATOM     17   O  NGY C   1      44.443   1.525  45.1290  0.00  0.00     0.000 OA
ATOM     18   O  NGY C   1      45.391   2.447  43.1960  0.00  0.00     0.000 O
ATOM     19   S  NGY C   1      44.884   1.100  43.8250  0.00  0.00     0.000 S
ATOM     20   O  NGY C   1      46.014   0.210  43.8910  0.00  0.00     0.000 OA
ATOM     21   O  NGY C   1      43.839   0.645  42.9220  0.00  0.00     0.000 OA
ENDBRANCH 5 16
BRANCH 1 22
ATOM     22  O4  BDP C   2      44.090   5.779  40.0990  0.00  0.00     0.000 O
BRANCH 22 26
ATOM     23  C1  BDP C   2      41.104   5.570  37.2700  0.00  0.00     0.000 C
ATOM     24  C2  BDP C   2      40.821   6.473  38.4480  0.00  0.00     0.000 C
ATOM     25  C3  BDP C   2      42.100   6.743  39.1960  0.00  0.00     0.000 C
ATOM     26  C4  BDP C   2      42.788   5.431  39.5580  0.00  0.00     0.000 C
ATOM     27  C5  BDP C   2      42.861   4.530  38.3320  0.00  0.00     0.000 C
ATOM     28  O5  BDP C   2      41.559   4.273  37.7470  0.00  0.00     0.000 O
ATOM     29   O  BDP C   2      40.386   7.771  38.0460  0.00  0.00     0.000 O
ATOM     31  HD  BDP C   2      40.649   8.437  38.5340  0.00  0.00     0.000 HD
ATOM     31   O  BDP C   2      41.747   7.452  40.3770  0.00  0.00     0.000 O
ATOM     33  HD  BDP C   2      42.010   8.117  40.8650  0.00  0.00     0.000 HD
BRANCH 27 33
ATOM     33   C  BDP C   2      43.445   3.173  38.6470  0.00  0.00     0.000 C
ATOM     34   O  BDP C   2      42.959   2.428  39.5310  0.00  0.00     0.000 OA
ATOM     35   O  BDP C   2      44.440   2.815  38.0390  0.00  0.00     0.000 OA
ENDBRANCH 27 33
BRANCH 23 36
ATOM     36  O4  SGN C   3      40.057   5.357  36.4390  0.00  0.00     0.000 O
BRANCH 36 40
ATOM     37  C1  SGN C   3      38.783   5.165  32.4680  0.00  0.00     0.000 C
ATOM     38  C2  SGN C   3      39.683   4.030  32.9850  0.00  0.00     0.000 C
ATOM     39  C3  SGN C   3      39.692   4.010  34.5070  0.00  0.00     0.000 C
ATOM     40  C4  SGN C   3      40.129   5.368  35.0110  0.00  0.00     0.000 C
ATOM     41  C5  SGN C   3      39.206   6.421  34.4370  0.00  0.00     0.000 C
ATOM     42  O5  SGN C   3      39.266   6.387  33.0020  0.00  0.00     0.000 O
ATOM     43   O  SGN C   3      40.577   2.991  34.9570  0.00  0.00     0.000 O
ATOM     45  HD  SGN C   3      40.525   3.620  35.5500  0.00  0.00     0.000 HD
BRANCH 38 47
ATOM     45   N  SGN C   3      40.255   3.757  31.6550  0.00  0.00     0.000 N
ATOM     47  HD  SGN C   3      40.297   4.194  32.4020  0.00  0.00     0.000 HD
ATOM     47   S  SGN C   3      39.655   2.436  31.0060  0.00  0.00     0.000 S
ATOM     48   O  SGN C   3      40.035   1.280  31.7380  0.00  0.00     0.000 OA
ATOM     49   O  SGN C   3      38.255   2.660  30.8450  0.00  0.00     0.000 OA
ATOM     50   O  SGN C   3      40.346   2.397  29.7180  0.00  0.00     0.000 OA
ENDBRANCH 38 47
BRANCH 41 51
ATOM     51   C  SGN C   3      39.532   7.825  34.8680  0.00  0.00     0.000 C
ATOM     52   O  SGN C   3      37.805  10.960  33.8310  0.00  0.00     0.000 OA
ATOM     53   O  SGN C   3      38.823  10.401  35.9250  0.00  0.00     0.000 OA
ATOM     54   O  SGN C   3      40.156  10.590  33.9360  0.00  0.00     0.000 OA
ATOM     55   O  SGN C   3      38.602   8.709  34.2810  0.00  0.00     0.000 O
ATOM     56   S  SGN C   3      38.874  10.315  34.5150  0.00  0.00     0.000 S
ENDBRANCH 41 51
BRANCH 37 57
ATOM     57  O4  IDS C   4      37.474   5.044  32.8000  0.00  0.00     0.000 O
BRANCH 57 61
ATOM     58  C1  IDS C   4      33.962   5.793  31.5450  0.00  0.00     0.000 C
ATOM     59  C2  IDS C   4      35.079   5.719  30.5520  0.00  0.00     0.000 C
ATOM     60  C3  IDS C   4      36.369   6.364  31.0640  0.00  0.00     0.000 C
ATOM     61  C4  IDS C   4      36.665   6.210  32.5490  0.00  0.00     0.000 C
ATOM     62  C5  IDS C   4      35.365   6.159  33.3600  0.00  0.00     0.000 C
ATOM     63  O5  IDS C   4      34.418   5.272  32.7820  0.00  0.00     0.000 O
ATOM     64   O  IDS C   4      36.235   7.743  30.7770  0.00  0.00     0.000 O
ATOM     66  HD  IDS C   4      36.172   8.200  31.5100  0.00  0.00     0.000 HD
BRANCH 59 66
ATOM     66   O  IDS C   4      35.414   4.322  30.2170  0.00  0.00     0.000 O
ATOM     67   S  IDS C   4      35.136   3.864  28.7190  0.00  0.00     0.000 S
ATOM     68   O  IDS C   4      36.050   4.676  27.9520  0.00  0.00     0.000 OA
ATOM     69   O  IDS C   4      35.421   2.443  28.7030  0.00  0.00     0.000 OA
ATOM     70   O  IDS C   4      33.749   4.189  28.4200  0.00  0.00     0.000 OA
ENDBRANCH 59 66
BRANCH 62 71
ATOM     71   C  IDS C   4      35.569   5.669  34.7810  0.00  0.00     0.000 C
ATOM     72   O  IDS C   4      35.327   4.513  35.0690  0.00  0.00     0.000 OA
ATOM     73   O  IDS C   4      35.888   6.499  35.6560  0.00  0.00     0.000 OA
ENDBRANCH 62 71
BRANCH 58 74
ATOM     74  O4  SGN C   5      33.258   6.961  31.5320  0.00  0.00     0.000 O
BRANCH 74 78
ATOM     75  C1  SGN C   5      29.562   8.524  32.6900  0.00  0.00     0.000 C
ATOM     76  C2  SGN C   5      29.981   7.205  33.3680  0.00  0.00     0.000 C
ATOM     77  C3  SGN C   5      31.469   6.921  33.1280  0.00  0.00     0.000 C
ATOM     78  C4  SGN C   5      31.842   7.084  31.6610  0.00  0.00     0.000 C
ATOM     79  C5  SGN C   5      31.376   8.446  31.1680  0.00  0.00     0.000 C
ATOM     80  O5  SGN C   5      29.936   8.550  31.3180  0.00  0.00     0.000 O
ATOM     81   O  SGN C   5      31.765   5.602  33.5750  0.00  0.00     0.000 O
ATOM     83  HD  SGN C   5      31.391   5.267  34.2810  0.00  0.00     0.000 HD
BRANCH 76 85
ATOM     83   N  SGN C   5      29.776   7.045  34.8130  0.00  0.00     0.000 N
ATOM     85  HD  SGN C   5      29.372   6.699  35.4970  0.00  0.00     0.000 HD
ATOM     85   S  SGN C   5      28.401   6.931  35.6450  0.00  0.00     0.000 S
ATOM     86   O  SGN C   5      28.671   6.739  37.0270  0.00  0.00     0.000 OA
ATOM     87   O  SGN C   5      27.604   8.051  35.2920  0.00  0.00     0.000 OA
ATOM     88   O  SGN C   5      27.927   5.629  35.0040  0.00  0.00     0.000 OA
ENDBRANCH 76 85
BRANCH 79 89
ATOM     89   C  SGN C   5      31.724   8.714  29.7180  0.00  0.00     0.000 C
ATOM     90   O  SGN C   5      33.128   9.053  29.6050  0.00  0.00     0.000 O
ATOM     91   S  SGN C   5      33.865   8.629  28.2440  0.00  0.00     0.000 S
ATOM     92   O  SGN C   5      33.603   7.225  28.0600  0.00  0.00     0.000 OA
ATOM     93   O  SGN C   5      33.306   9.436  27.1900  0.00  0.00     0.000 OA
ATOM     94   O  SGN C   5      35.247   8.923  28.5110  0.00  0.00     0.000 OA
ENDBRANCH 79 89
BRANCH 75 95
ATOM     95  O4  BDP C   6      30.219   9.514  33.3640  0.00  0.00     0.000 O
BRANCH 95 99
ATOM     96  C1  BDP C   6      28.647  13.433  34.1460  0.00  0.00     0.000 C
ATOM     97  C2  BDP C   6      27.739  12.398  33.5430  0.00  0.00     0.000 C
ATOM     98  C3  BDP C   6      28.258  10.957  33.6560  0.00  0.00     0.000 C
ATOM     99  C4  BDP C   6      29.709  10.856  33.2100  0.00  0.00     0.000 C
ATOM    100  C5  BDP C   6      30.512  11.958  33.9410  0.00  0.00     0.000 C
ATOM    101  O5  BDP C   6      29.884  13.175  33.5080  0.00  0.00     0.000 O
BRANCH 100 102
ATOM    102   C  BDP C   6      31.957  12.003  33.5160  0.00  0.00     0.000 C
ATOM    103   O  BDP C   6      32.360  11.456  32.4790  0.00  0.00     0.000 OA
ATOM    104   O  BDP C   6      32.735  12.629  34.2460  0.00  0.00     0.000 OA
ENDBRANCH 100 102
ENDBRANCH 95 99
ENDBRANCH 75 95
ENDBRANCH 74 78
ENDBRANCH 58 74
ENDBRANCH 57 61
ENDBRANCH 37 57
ENDBRANCH 36 40
ENDBRANCH 23 36
ENDBRANCH 22 26
ENDBRANCH 1 22
TORSDOF 20
ENDMDL
MODEL 24
REMARK VINA RESULT:      -5.7     35.931     38.943
ROOT
ATOM      1  C1  NGY C   1      13.944  19.217  66.2560  0.00  0.00     0.000 C
ATOM      2  C2  NGY C   1      14.446  19.809  67.5650  0.00  0.00     0.000 C
ATOM      3  C3  NGY C   1      13.817  19.083  68.7500  0.00  0.00     0.000 C
ATOM      4  C4  NGY C   1      12.310  19.128  68.5890  0.00  0.00     0.000 C
ATOM      5  C5  NGY C   1      11.935  18.432  67.2830  0.00  0.00     0.000 C
ATOM      6  O5  NGY C   1      12.534  19.170  66.1870  0.00  0.00     0.000 O
ATOM      7   O  NGY C   1      14.244  19.700  69.9560  0.00  0.00     0.000 O
ATOM      9  HD  NGY C   1      14.419  20.501  70.2340  0.00  0.00     0.000 HD
ATOM      9   O  NGY C   1      11.663  18.495  69.6830  0.00  0.00     0.000 O
ATOM     11  HD  NGY C   1      11.838  19.296  69.9620  0.00  0.00     0.000 HD
ENDROOT
BRANCH 2 13
ATOM     11   N  NGY C   1      15.383  20.571  68.3570  0.00  0.00     0.000 N
ATOM     13  HD  NGY C   1      16.075  20.513  67.8390  0.00  0.00     0.000 HD
ATOM     13   C  NGY C   1      16.639  20.765  67.9570  0.00  0.00     0.000 C
ATOM     14   O  NGY C   1      17.090  20.184  66.9680  0.00  0.00     0.000 OA
ATOM     15   C  NGY C   1      17.455  21.740  68.7510  0.00  0.00     0.000 C
ENDBRANCH 2 13
BRANCH 5 16
ATOM     16   C  NGY C   1      10.470  18.385  66.9860  0.00  0.00     0.000 C
ATOM     17   O  NGY C   1       8.788  15.530  65.4130  0.00  0.00     0.000 OA
ATOM     18   O  NGY C   1      10.200  17.231  66.1850  0.00  0.00     0.000 O
ATOM     19   S  NGY C   1       8.700  16.767  66.1470  0.00  0.00     0.000 S
ATOM     20   O  NGY C   1       7.960  17.775  65.4340  0.00  0.00     0.000 OA
ATOM     21   O  NGY C   1       8.318  16.646  67.5440  0.00  0.00     0.000 OA
ENDBRANCH 5 16
BRANCH 1 22
ATOM     22  O4  BDP C   2      14.513  18.006  66.0800  0.00  0.00     0.000 O
BRANCH 22 26
ATOM     23  C1  BDP C   2      16.283  15.234  63.6000  0.00  0.00     0.000 C
ATOM     24  C2  BDP C   2      16.668  16.672  63.3460  0.00  0.00     0.000 C
ATOM     25  C3  BDP C   2      16.256  17.520  64.5210  0.00  0.00     0.000 C
ATOM     26  C4  BDP C   2      14.779  17.309  64.8340  0.00  0.00     0.000 C
ATOM     27  C5  BDP C   2      14.471  15.819  64.8940  0.00  0.00     0.000 C
ATOM     28  O5  BDP C   2      14.834  15.122  63.6750  0.00  0.00     0.000 O
ATOM     29   O  BDP C   2      18.082  16.853  63.2790  0.00  0.00     0.000 O
ATOM     31  HD  BDP C   2      18.394  17.593  63.6050  0.00  0.00     0.000 HD
ATOM     31   O  BDP C   2      16.489  18.875  64.1550  0.00  0.00     0.000 O
ATOM     33  HD  BDP C   2      16.801  19.614  64.4800  0.00  0.00     0.000 HD
BRANCH 27 33
ATOM     33   C  BDP C   2      13.002  15.540  65.1040  0.00  0.00     0.000 C
ATOM     34   O  BDP C   2      12.590  14.808  66.0350  0.00  0.00     0.000 OA
ATOM     35   O  BDP C   2      12.202  16.020  64.3180  0.00  0.00     0.000 OA
ENDBRANCH 27 33
BRANCH 23 36
ATOM     36  O4  SGN C   3      16.715  14.346  62.6750  0.00  0.00     0.000 O
BRANCH 36 40
ATOM     37  C1  SGN C   3      17.923  10.374  62.2350  0.00  0.00     0.000 C
ATOM     38  C2  SGN C   3      16.566  10.779  61.6360  0.00  0.00     0.000 C
ATOM     39  C3  SGN C   3      16.478  12.291  61.4910  0.00  0.00     0.000 C
ATOM     40  C4  SGN C   3      16.724  12.926  62.8430  0.00  0.00     0.000 C
ATOM     41  C5  SGN C   3      18.064  12.457  63.3650  0.00  0.00     0.000 C
ATOM     42  O5  SGN C   3      18.062  11.026  63.4880  0.00  0.00     0.000 O
ATOM     43   O  SGN C   3      15.193  12.639  60.9910  0.00  0.00     0.000 O
ATOM     45  HD  SGN C   3      15.513  13.291  61.4630  0.00  0.00     0.000 HD
BRANCH 38 47
ATOM     45   N  SGN C   3      15.473  10.085  60.9300  0.00  0.00     0.000 N
ATOM     47  HD  SGN C   3      15.791  10.821  61.2590  0.00  0.00     0.000 HD
ATOM     47   S  SGN C   3      15.917   8.653  60.4040  0.00  0.00     0.000 S
ATOM     48   O  SGN C   3      16.908   8.757  59.3910  0.00  0.00     0.000 OA
ATOM     49   O  SGN C   3      16.256   7.881  61.5540  0.00  0.00     0.000 OA
ATOM     50   O  SGN C   3      14.687   8.172  59.7770  0.00  0.00     0.000 OA
ENDBRANCH 38 47
BRANCH 41 51
ATOM     51   C  SGN C   3      18.433  13.023  64.7090  0.00  0.00     0.000 C
ATOM     52   O  SGN C   3      16.343  13.059  67.7930  0.00  0.00     0.000 OA
ATOM     53   O  SGN C   3      18.717  12.850  67.5630  0.00  0.00     0.000 OA
ATOM     54   O  SGN C   3      17.603  14.871  66.8990  0.00  0.00     0.000 OA
ATOM     55   O  SGN C   3      17.375  12.784  65.6110  0.00  0.00     0.000 O
ATOM     56   S  SGN C   3      17.524  13.455  67.1060  0.00  0.00     0.000 S
ENDBRANCH 41 51
BRANCH 37 57
ATOM     57  O4  IDS C   4      18.996  10.691  61.4710  0.00  0.00     0.000 O
BRANCH 57 61
ATOM     58  C1  IDS C   4      21.956   8.463  60.6090  0.00  0.00     0.000 C
ATOM     59  C2  IDS C   4      20.858   7.902  61.4560  0.00  0.00     0.000 C
ATOM     60  C3  IDS C   4      20.329   8.908  62.4810  0.00  0.00     0.000 C
ATOM     61  C4  IDS C   4      20.278  10.365  62.0420  0.00  0.00     0.000 C
ATOM     62  C5  IDS C   4      21.411  10.676  61.0570  0.00  0.00     0.000 C
ATOM     63  O5  IDS C   4      21.516   9.686  60.0440  0.00  0.00     0.000 O
ATOM     64   O  IDS C   4      21.205   8.808  63.5880  0.00  0.00     0.000 O
ATOM     66  HD  IDS C   4      21.661   9.538  63.6810  0.00  0.00     0.000 HD
BRANCH 59 66
ATOM     66   O  IDS C   4      19.700   7.489  60.6400  0.00  0.00     0.000 O
ATOM     67   S  IDS C   4      19.206   5.987  60.8160  0.00  0.00     0.000 S
ATOM     68   O  IDS C   4      18.748   5.950  62.1840  0.00  0.00     0.000 OA
ATOM     69   O  IDS C   4      18.168   5.816  59.8190  0.00  0.00     0.000 OA
ATOM     70   O  IDS C   4      20.362   5.127  60.6150  0.00  0.00     0.000 OA
ENDBRANCH 59 66
BRANCH 62 71
ATOM     71   C  IDS C   4      21.219  11.991  60.3250  0.00  0.00     0.000 C
ATOM     72   O  IDS C   4      21.282  13.042  60.9330  0.00  0.00     0.000 OA
ATOM     73   O  IDS C   4      20.896  11.958  59.1210  0.00  0.00     0.000 OA
ENDBRANCH 62 71
BRANCH 58 74
ATOM     74  O4  SGN C   5      23.201   8.393  61.1620  0.00  0.00     0.000 O
BRANCH 74 78
ATOM     75  C1  SGN C   5      27.287   7.899  60.4540  0.00  0.00     0.000 C
ATOM     76  C2  SGN C   5      26.740   9.329  60.2860  0.00  0.00     0.000 C
ATOM     77  C3  SGN C   5      25.337   9.449  60.8950  0.00  0.00     0.000 C
ATOM     78  C4  SGN C   5      24.431   8.312  60.4420  0.00  0.00     0.000 C
ATOM     79  C5  SGN C   5      25.118   6.980  60.7060  0.00  0.00     0.000 C
ATOM     80  O5  SGN C   5      26.369   6.926  59.9710  0.00  0.00     0.000 O
ATOM     81   O  SGN C   5      24.781  10.707  60.5290  0.00  0.00     0.000 O
ATOM     83  HD  SGN C   5      25.268  11.421  60.4770  0.00  0.00     0.000 HD
BRANCH 76 85
ATOM     83   N  SGN C   5      28.101   9.740  59.9190  0.00  0.00     0.000 N
ATOM     85  HD  SGN C   5      28.879  10.073  60.1060  0.00  0.00     0.000 HD
ATOM     85   S  SGN C   5      28.931  11.046  60.3670  0.00  0.00     0.000 S
ATOM     86   O  SGN C   5      30.237  11.021  59.8070  0.00  0.00     0.000 OA
ATOM     87   O  SGN C   5      28.124  12.176  60.0740  0.00  0.00     0.000 OA
ATOM     88   O  SGN C   5      28.977  10.710  61.8550  0.00  0.00     0.000 OA
ENDBRANCH 76 85
BRANCH 79 89
ATOM     89   C  SGN C   5      24.281   5.780  60.3090  0.00  0.00     0.000 C
ATOM     90   O  SGN C   5      23.750   5.973  58.9750  0.00  0.00     0.000 O
ATOM     91   S  SGN C   5      23.533   4.653  58.0880  0.00  0.00     0.000 S
ATOM     92   O  SGN C   5      24.785   3.942  58.1040  0.00  0.00     0.000 OA
ATOM     93   O  SGN C   5      22.466   3.903  58.6990  0.00  0.00     0.000 OA
ATOM     94   O  SGN C   5      23.189   5.177  56.7940  0.00  0.00     0.000 OA
ENDBRANCH 79 89
BRANCH 75 95
ATOM     95  O4  BDP C   6      27.474   7.728  61.7960  0.00  0.00     0.000 O
BRANCH 95 99
ATOM     96  C1  BDP C   6      30.349   5.426  64.0070  0.00  0.00     0.000 C
ATOM     97  C2  BDP C   6      30.817   6.212  62.8140  0.00  0.00     0.000 C
ATOM     98  C3  BDP C   6      29.826   7.282  62.3320  0.00  0.00     0.000 C
ATOM     99  C4  BDP C   6      28.420   6.714  62.1980  0.00  0.00     0.000 C
ATOM    100  C5  BDP C   6      28.078   5.971  63.5110  0.00  0.00     0.000 C
ATOM    101  O5  BDP C   6      29.083   4.948  63.5900  0.00  0.00     0.000 O
BRANCH 100 102
ATOM    102   C  BDP C   6      26.731   5.297  63.4640  0.00  0.00     0.000 C
ATOM    103   O  BDP C   6      26.544   4.234  62.8550  0.00  0.00     0.000 OA
ATOM    104   O  BDP C   6      25.809   5.847  64.0760  0.00  0.00     0.000 OA
ENDBRANCH 100 102
ENDBRANCH 95 99
ENDBRANCH 75 95
ENDBRANCH 74 78
ENDBRANCH 58 74
ENDBRANCH 57 61
ENDBRANCH 37 57
ENDBRANCH 36 40
ENDBRANCH 23 36
ENDBRANCH 22 26
ENDBRANCH 1 22
TORSDOF 20
ENDMDL
MODEL 25
REMARK VINA RESULT:      -5.3     31.365     35.512
ROOT
ATOM      1  C1  NGY C   1      18.627  16.526  63.3640  0.00  0.00     0.000 C
ATOM      2  C2  NGY C   1      17.212  15.992  63.5380  0.00  0.00     0.000 C
ATOM      3  C3  NGY C   1      16.320  16.478  62.4000  0.00  0.00     0.000 C
ATOM      4  C4  NGY C   1      16.406  17.991  62.3410  0.00  0.00     0.000 C
ATOM      5  C5  NGY C   1      17.856  18.389  62.0810  0.00  0.00     0.000 C
ATOM      6  O5  NGY C   1      18.661  17.928  63.1980  0.00  0.00     0.000 O
ATOM      7   O  NGY C   1      14.991  16.028  62.6230  0.00  0.00     0.000 O
ATOM      9  HD  NGY C   1      14.466  15.904  63.3000  0.00  0.00     0.000 HD
ATOM      9   O  NGY C   1      15.567  18.509  61.3180  0.00  0.00     0.000 O
ATOM     11  HD  NGY C   1      15.042  18.385  61.9950  0.00  0.00     0.000 HD
ENDROOT
BRANCH 2 13
ATOM     11   N  NGY C   1      16.432  14.777  63.5690  0.00  0.00     0.000 N
ATOM     13  HD  NGY C   1      16.764  14.423  64.2860  0.00  0.00     0.000 HD
ATOM     13   C  NGY C   1      16.594  13.868  64.5300  0.00  0.00     0.000 C
ATOM     14   O  NGY C   1      17.513  13.961  65.3460  0.00  0.00     0.000 OA
ATOM     15   C  NGY C   1      15.592  12.755  64.5790  0.00  0.00     0.000 C
ENDBRANCH 2 13
BRANCH 5 16
ATOM     16   C  NGY C   1      18.104  19.861  61.9860  0.00  0.00     0.000 C
ATOM     17   O  NGY C   1      18.859  21.613  58.8530  0.00  0.00     0.000 OA
ATOM     18   O  NGY C   1      18.576  20.163  60.6700  0.00  0.00     0.000 O
ATOM     19   S  NGY C   1      18.465  21.670  60.2380  0.00  0.00     0.000 S
ATOM     20   O  NGY C   1      19.399  22.413  61.0430  0.00  0.00     0.000 OA
ATOM     21   O  NGY C   1      17.077  22.021  60.4860  0.00  0.00     0.000 OA
ENDBRANCH 5 16
BRANCH 1 22
ATOM     22  O4  BDP C   2      19.217  15.868  62.3440  0.00  0.00     0.000 O
BRANCH 22 26
ATOM     23  C1  BDP C   2      22.605  14.275  60.6270  0.00  0.00     0.000 C
ATOM     24  C2  BDP C   2      22.492  14.102  62.1230  0.00  0.00     0.000 C
ATOM     25  C3  BDP C   2      21.079  14.388  62.5600  0.00  0.00     0.000 C
ATOM     26  C4  BDP C   2      20.634  15.754  62.0480  0.00  0.00     0.000 C
ATOM     27  C5  BDP C   2      20.957  15.880  60.5650  0.00  0.00     0.000 C
ATOM     28  O5  BDP C   2      22.362  15.666  60.2770  0.00  0.00     0.000 O
ATOM     29   O  BDP C   2      22.704  12.750  62.5320  0.00  0.00     0.000 O
ATOM     31  HD  BDP C   2      22.229  12.469  63.2000  0.00  0.00     0.000 HD
ATOM     31   O  BDP C   2      21.075  14.374  63.9820  0.00  0.00     0.000 O
ATOM     33  HD  BDP C   2      20.600  14.092  64.6490  0.00  0.00     0.000 HD
BRANCH 27 33
ATOM     33   C  BDP C   2      20.629  17.249  60.0170  0.00  0.00     0.000 C
ATOM     34   O  BDP C   2      21.246  18.278  60.3840  0.00  0.00     0.000 OA
ATOM     35   O  BDP C   2      19.712  17.351  59.2190  0.00  0.00     0.000 OA
ENDBRANCH 27 33
BRANCH 23 36
ATOM     36  O4  SGN C   3      23.796  13.920  60.0910  0.00  0.00     0.000 O
BRANCH 36 40
ATOM     37  C1  SGN C   3      25.715  12.179  56.8170  0.00  0.00     0.000 C
ATOM     38  C2  SGN C   3      25.264  13.643  56.6850  0.00  0.00     0.000 C
ATOM     39  C3  SGN C   3      24.998  14.244  58.0580  0.00  0.00     0.000 C
ATOM     40  C4  SGN C   3      23.977  13.387  58.7760  0.00  0.00     0.000 C
ATOM     41  C5  SGN C   3      24.490  11.966  58.8390  0.00  0.00     0.000 C
ATOM     42  O5  SGN C   3      24.701  11.467  57.5090  0.00  0.00     0.000 O
ATOM     43   O  SGN C   3      24.526  15.576  57.9030  0.00  0.00     0.000 O
ATOM     45  HD  SGN C   3      24.220  15.239  58.6400  0.00  0.00     0.000 HD
BRANCH 38 47
ATOM     45   N  SGN C   3      25.297  13.309  55.2500  0.00  0.00     0.000 N
ATOM     47  HD  SGN C   3      24.911  13.221  56.0200  0.00  0.00     0.000 HD
ATOM     47   S  SGN C   3      26.268  14.269  54.4360  0.00  0.00     0.000 S
ATOM     48   O  SGN C   3      25.783  15.603  54.4200  0.00  0.00     0.000 OA
ATOM     49   O  SGN C   3      27.578  14.069  54.9650  0.00  0.00     0.000 OA
ATOM     50   O  SGN C   3      26.147  13.734  53.0810  0.00  0.00     0.000 OA
ENDBRANCH 38 47
BRANCH 41 51
ATOM     51   C  SGN C   3      23.564  11.007  59.5380  0.00  0.00     0.000 C
ATOM     52   O  SGN C   3      19.855  10.831  59.2370  0.00  0.00     0.000 OA
ATOM     53   O  SGN C   3      21.443   9.070  59.5680  0.00  0.00     0.000 OA
ATOM     54   O  SGN C   3      21.131  10.759  61.2460  0.00  0.00     0.000 OA
ATOM     55   O  SGN C   3      22.245  11.251  59.1040  0.00  0.00     0.000 O
ATOM     56   S  SGN C   3      21.058  10.398  59.8610  0.00  0.00     0.000 S
ENDBRANCH 41 51
BRANCH 37 57
ATOM     57  O4  IDS C   4      26.884  12.005  57.4810  0.00  0.00     0.000 O
BRANCH 57 61
ATOM     58  C1  IDS C   4      29.742   9.777  56.3250  0.00  0.00     0.000 C
ATOM     59  C2  IDS C   4      28.499   9.839  55.4950  0.00  0.00     0.000 C
ATOM     60  C3  IDS C   4      27.224   9.869  56.3410  0.00  0.00     0.000 C
ATOM     61  C4  IDS C   4      27.296  10.636  57.6550  0.00  0.00     0.000 C
ATOM     62  C5  IDS C   4      28.706  10.559  58.2520  0.00  0.00     0.000 C
ATOM     63  O5  IDS C   4      29.705  10.825  57.2780  0.00  0.00     0.000 O
ATOM     64   O  IDS C   4      26.937   8.514  56.6320  0.00  0.00     0.000 O
ATOM     66  HD  IDS C   4      27.032   8.358  57.4780  0.00  0.00     0.000 HD
BRANCH 59 66
ATOM     66   O  IDS C   4      28.470  11.048  54.6510  0.00  0.00     0.000 O
ATOM     67   S  IDS C   4      28.619  10.824  53.0830  0.00  0.00     0.000 S
ATOM     68   O  IDS C   4      27.427  10.086  52.7420  0.00  0.00     0.000 OA
ATOM     69   O  IDS C   4      28.693  12.158  52.5210  0.00  0.00     0.000 OA
ATOM     70   O  IDS C   4      29.820  10.030  52.8740  0.00  0.00     0.000 OA
ENDBRANCH 59 66
BRANCH 62 71
ATOM     71   C  IDS C   4      28.937  11.568  59.3610  0.00  0.00     0.000 C
ATOM     72   O  IDS C   4      28.300  11.495  60.3940  0.00  0.00     0.000 OA
ATOM     73   O  IDS C   4      29.712  12.521  59.1450  0.00  0.00     0.000 OA
ENDBRANCH 62 71
BRANCH 58 74
ATOM     74  O4  SGN C   5      30.104   8.525  56.7260  0.00  0.00     0.000 O
BRANCH 74 78
ATOM     75  C1  SGN C   5      33.746   6.484  56.8440  0.00  0.00     0.000 C
ATOM     76  C2  SGN C   5      32.742   6.138  57.9590  0.00  0.00     0.000 C
ATOM     77  C3  SGN C   5      31.346   6.679  57.6190  0.00  0.00     0.000 C
ATOM     78  C4  SGN C   5      31.402   8.134  57.1750  0.00  0.00     0.000 C
ATOM     79  C5  SGN C   5      32.422   8.284  56.0560  0.00  0.00     0.000 C
ATOM     80  O5  SGN C   5      33.730   7.871  56.5340  0.00  0.00     0.000 O
ATOM     81   O  SGN C   5      30.505   6.536  58.7590  0.00  0.00     0.000 O
ATOM     83  HD  SGN C   5      30.563   5.849  59.2830  0.00  0.00     0.000 HD
BRANCH 76 85
ATOM     83   N  SGN C   5      33.749   5.138  58.3330  0.00  0.00     0.000 N
ATOM     85  HD  SGN C   5      34.029   4.321  58.4060  0.00  0.00     0.000 HD
ATOM     85   S  SGN C   5      33.555   3.711  59.0560  0.00  0.00     0.000 S
ATOM     86   O  SGN C   5      34.805   3.045  59.1850  0.00  0.00     0.000 OA
ATOM     87   O  SGN C   5      32.820   3.942  60.2480  0.00  0.00     0.000 OA
ATOM     88   O  SGN C   5      32.719   3.076  57.9470  0.00  0.00     0.000 OA
ENDBRANCH 76 85
BRANCH 79 89
ATOM     89   C  SGN C   5      32.534   9.700  55.5270  0.00  0.00     0.000 C
ATOM     90   O  SGN C   5      33.205  10.536  56.5020  0.00  0.00     0.000 O
ATOM     91   S  SGN C   5      34.088  11.747  55.9270  0.00  0.00     0.000 S
ATOM     92   O  SGN C   5      34.984  11.172  54.9590  0.00  0.00     0.000 OA
ATOM     93   O  SGN C   5      33.176  12.694  55.3390  0.00  0.00     0.000 OA
ATOM     94   O  SGN C   5      34.756  12.252  57.0960  0.00  0.00     0.000 OA
ENDBRANCH 79 89
BRANCH 75 95
ATOM     95  O4  BDP C   6      33.351   5.765  55.7510  0.00  0.00     0.000 O
BRANCH 95 99
ATOM     96  C1  BDP C   6      35.771   3.937  52.7100  0.00  0.00     0.000 C
ATOM     97  C2  BDP C   6      36.377   4.183  54.0640  0.00  0.00     0.000 C
ATOM     98  C3  BDP C   6      35.354   4.473  55.1720  0.00  0.00     0.000 C
ATOM     99  C4  BDP C   6      34.347   5.526  54.7330  0.00  0.00     0.000 C
ATOM    100  C5  BDP C   6      33.794   5.112  53.3500  0.00  0.00     0.000 C
ATOM    101  O5  BDP C   6      34.963   5.083  52.5150  0.00  0.00     0.000 O
BRANCH 100 102
ATOM    102   C  BDP C   6      32.839   6.128  52.7770  0.00  0.00     0.000 C
ATOM    103   O  BDP C   6      31.679   5.837  52.4530  0.00  0.00     0.000 OA
ATOM    104   O  BDP C   6      33.262   7.284  52.6520  0.00  0.00     0.000 OA
ENDBRANCH 100 102
ENDBRANCH 95 99
ENDBRANCH 75 95
ENDBRANCH 74 78
ENDBRANCH 58 74
ENDBRANCH 57 61
ENDBRANCH 37 57
ENDBRANCH 36 40
ENDBRANCH 23 36
ENDBRANCH 22 26
ENDBRANCH 1 22
TORSDOF 20
ENDMDL
MODEL 26
REMARK VINA RESULT:      -5.3     28.072     31.556
ROOT
ATOM      1  C1  NGY C   1      20.118  21.231  54.7910  0.00  0.00     0.000 C
ATOM      2  C2  NGY C   1      20.338  22.587  55.4470  0.00  0.00     0.000 C
ATOM      3  C3  NGY C   1      19.414  22.748  56.6500  0.00  0.00     0.000 C
ATOM      4  C4  NGY C   1      17.989  22.508  56.1910  0.00  0.00     0.000 C
ATOM      5  C5  NGY C   1      17.886  21.092  55.6320  0.00  0.00     0.000 C
ATOM      6  O5  NGY C   1      18.761  20.993  54.4790  0.00  0.00     0.000 O
ATOM      7   O  NGY C   1      19.587  24.047  57.2000  0.00  0.00     0.000 O
ATOM      9  HD  NGY C   1      19.737  24.848  56.9070  0.00  0.00     0.000 HD
ATOM      9   O  NGY C   1      17.074  22.678  57.2630  0.00  0.00     0.000 O
ATOM     11  HD  NGY C   1      17.224  23.480  56.9710  0.00  0.00     0.000 HD
ENDROOT
BRANCH 2 13
ATOM     11   N  NGY C   1      21.655  22.815  55.9950  0.00  0.00     0.000 N
ATOM     13  HD  NGY C   1      21.883  23.499  55.5150  0.00  0.00     0.000 HD
ATOM     13   C  NGY C   1      22.432  23.803  55.5540  0.00  0.00     0.000 C
ATOM     14   O  NGY C   1      22.118  24.469  54.5660  0.00  0.00     0.000 OA
ATOM     15   C  NGY C   1      23.682  24.074  56.3340  0.00  0.00     0.000 C
ENDBRANCH 2 13
BRANCH 5 16
ATOM     16   C  NGY C   1      16.529  20.699  55.1440  0.00  0.00     0.000 C
ATOM     17   O  NGY C   1      13.392  21.916  56.6050  0.00  0.00     0.000 OA
ATOM     18   O  NGY C   1      15.550  21.180  56.0690  0.00  0.00     0.000 O
ATOM     19   S  NGY C   1      14.080  21.264  55.5200  0.00  0.00     0.000 S
ATOM     20   O  NGY C   1      13.625  19.913  55.3160  0.00  0.00     0.000 OA
ATOM     21   O  NGY C   1      14.190  22.031  54.2900  0.00  0.00     0.000 OA
ENDBRANCH 5 16
BRANCH 1 22
ATOM     22  O4  BDP C   2      20.644  20.274  55.5840  0.00  0.00     0.000 O
BRANCH 22 26
ATOM     23  C1  BDP C   2      22.931  16.848  55.5950  0.00  0.00     0.000 C
ATOM     24  C2  BDP C   2      22.906  17.609  54.2900  0.00  0.00     0.000 C
ATOM     25  C3  BDP C   2      22.357  18.992  54.5220  0.00  0.00     0.000 C
ATOM     26  C4  BDP C   2      21.009  18.913  55.2310  0.00  0.00     0.000 C
ATOM     27  C5  BDP C   2      21.110  17.981  56.4310  0.00  0.00     0.000 C
ATOM     28  O5  BDP C   2      21.570  16.653  56.0720  0.00  0.00     0.000 O
ATOM     29   O  BDP C   2      24.216  17.850  53.7760  0.00  0.00     0.000 O
ATOM     31  HD  BDP C   2      24.341  18.604  53.3700  0.00  0.00     0.000 HD
ATOM     31   O  BDP C   2      22.202  19.595  53.2430  0.00  0.00     0.000 O
ATOM     33  HD  BDP C   2      22.326  20.350  52.8380  0.00  0.00     0.000 HD
BRANCH 27 33
ATOM     33   C  BDP C   2      19.781  17.782  57.1210  0.00  0.00     0.000 C
ATOM     34   O  BDP C   2      19.693  17.621  58.3620  0.00  0.00     0.000 OA
ATOM     35   O  BDP C   2      18.772  17.743  56.4370  0.00  0.00     0.000 OA
ENDBRANCH 27 33
BRANCH 23 36
ATOM     36  O4  SGN C   3      23.526  15.634  55.5460  0.00  0.00     0.000 O
BRANCH 36 40
ATOM     37  C1  SGN C   3      25.528  12.678  57.7100  0.00  0.00     0.000 C
ATOM     38  C2  SGN C   3      24.043  12.917  58.0320  0.00  0.00     0.000 C
ATOM     39  C3  SGN C   3      23.370  13.678  56.9000  0.00  0.00     0.000 C
ATOM     40  C4  SGN C   3      24.124  14.968  56.6620  0.00  0.00     0.000 C
ATOM     41  C5  SGN C   3      25.573  14.641  56.3770  0.00  0.00     0.000 C
ATOM     42  O5  SGN C   3      26.140  13.940  57.4950  0.00  0.00     0.000 O
ATOM     43   O  SGN C   3      22.015  13.936  57.2490  0.00  0.00     0.000 O
ATOM     45  HD  SGN C   3      22.300  14.545  56.7030  0.00  0.00     0.000 HD
BRANCH 38 47
ATOM     45   N  SGN C   3      24.225  12.460  59.4210  0.00  0.00     0.000 N
ATOM     47  HD  SGN C   3      24.250  13.108  58.8480  0.00  0.00     0.000 HD
ATOM     47   S  SGN C   3      23.582  11.027  59.6670  0.00  0.00     0.000 S
ATOM     48   O  SGN C   3      22.168  11.066  59.5480  0.00  0.00     0.000 OA
ATOM     49   O  SGN C   3      24.272  10.117  58.8120  0.00  0.00     0.000 OA
ATOM     50   O  SGN C   3      23.905  10.794  61.0740  0.00  0.00     0.000 OA
ENDBRANCH 38 47
BRANCH 41 51
ATOM     51   C  SGN C   3      26.436  15.846  56.1170  0.00  0.00     0.000 C
ATOM     52   O  SGN C   3      27.812  16.968  52.8420  0.00  0.00     0.000 OA
ATOM     53   O  SGN C   3      27.084  18.269  54.7150  0.00  0.00     0.000 OA
ATOM     54   O  SGN C   3      28.986  16.816  54.9090  0.00  0.00     0.000 OA
ATOM     55   O  SGN C   3      26.693  15.932  54.7330  0.00  0.00     0.000 O
ATOM     56   S  SGN C   3      27.743  17.106  54.2570  0.00  0.00     0.000 S
ENDBRANCH 41 51
BRANCH 37 57
ATOM     57  O4  IDS C   4      25.753  11.906  56.6200  0.00  0.00     0.000 O
BRANCH 57 61
ATOM     58  C1  IDS C   4      27.592   8.905  55.1750  0.00  0.00     0.000 C
ATOM     59  C2  IDS C   4      27.254   8.906  56.6320  0.00  0.00     0.000 C
ATOM     60  C3  IDS C   4      27.451  10.277  57.2840  0.00  0.00     0.000 C
ATOM     61  C4  IDS C   4      27.120  11.492  56.4280  0.00  0.00     0.000 C
ATOM     62  C5  IDS C   4      27.405  11.209  54.9490  0.00  0.00     0.000 C
ATOM     63  O5  IDS C   4      26.880   9.954  54.5420  0.00  0.00     0.000 O
ATOM     64   O  IDS C   4      28.824  10.333  57.6240  0.00  0.00     0.000 O
ATOM     66  HD  IDS C   4      29.230  10.931  57.1480  0.00  0.00     0.000 HD
BRANCH 59 66
ATOM     66   O  IDS C   4      25.845   8.533  56.8630  0.00  0.00     0.000 O
ATOM     67   S  IDS C   4      25.581   7.068  57.4250  0.00  0.00     0.000 S
ATOM     68   O  IDS C   4      26.190   7.103  58.7330  0.00  0.00     0.000 OA
ATOM     69   O  IDS C   4      24.138   6.924  57.4270  0.00  0.00     0.000 OA
ATOM     70   O  IDS C   4      26.263   6.138  56.5390  0.00  0.00     0.000 OA
ENDBRANCH 59 66
BRANCH 62 71
ATOM     71   C  IDS C   4      26.785  12.233  54.0170  0.00  0.00     0.000 C
ATOM     72   O  IDS C   4      25.693  12.028  53.5250  0.00  0.00     0.000 OA
ATOM     73   O  IDS C   4      27.464  13.228  53.6930  0.00  0.00     0.000 OA
ENDBRANCH 62 71
BRANCH 58 74
ATOM     74  O4  SGN C   5      28.914   8.731  54.8920  0.00  0.00     0.000 O
BRANCH 74 78
ATOM     75  C1  SGN C   5      31.731   7.137  52.2530  0.00  0.00     0.000 C
ATOM     76  C2  SGN C   5      30.910   8.329  51.7260  0.00  0.00     0.000 C
ATOM     77  C3  SGN C   5      30.174   9.031  52.8750  0.00  0.00     0.000 C
ATOM     78  C4  SGN C   5      29.442   8.035  53.7630  0.00  0.00     0.000 C
ATOM     79  C5  SGN C   5      30.408   6.947  54.2090  0.00  0.00     0.000 C
ATOM     80  O5  SGN C   5      30.938   6.261  53.0440  0.00  0.00     0.000 O
ATOM     81   O  SGN C   5      29.262   9.978  52.3280  0.00  0.00     0.000 O
ATOM     83  HD  SGN C   5      29.455  10.440  51.6210  0.00  0.00     0.000 HD
BRANCH 76 85
ATOM     83   N  SGN C   5      31.500   9.416  50.9340  0.00  0.00     0.000 N
ATOM     85  HD  SGN C   5      31.672   9.812  50.1830  0.00  0.00     0.000 HD
ATOM     85   S  SGN C   5      32.284   9.348  49.5290  0.00  0.00     0.000 S
ATOM     86   O  SGN C   5      32.645  10.654  49.0980  0.00  0.00     0.000 OA
ATOM     87   O  SGN C   5      33.333   8.404  49.6790  0.00  0.00     0.000 OA
ATOM     88   O  SGN C   5      31.110   8.818  48.7090  0.00  0.00     0.000 OA
ENDBRANCH 76 85
BRANCH 79 89
ATOM     89   C  SGN C   5      29.776   5.915  55.1220  0.00  0.00     0.000 C
ATOM     90   O  SGN C   5      30.808   5.093  55.7190  0.00  0.00     0.000 O
ATOM     91   S  SGN C   5      30.514   4.523  57.1910  0.00  0.00     0.000 S
ATOM     92   O  SGN C   5      30.151   5.657  58.0000  0.00  0.00     0.000 OA
ATOM     93   O  SGN C   5      29.442   3.568  57.0690  0.00  0.00     0.000 OA
ATOM     94   O  SGN C   5      31.765   3.926  57.5700  0.00  0.00     0.000 OA
ENDBRANCH 79 89
BRANCH 75 95
ATOM     95  O4  BDP C   6      32.722   7.679  53.0220  0.00  0.00     0.000 O
BRANCH 95 99
ATOM     96  C1  BDP C   6      36.554   5.971  53.9420  0.00  0.00     0.000 C
ATOM     97  C2  BDP C   6      35.785   5.429  52.7700  0.00  0.00     0.000 C
ATOM     98  C3  BDP C   6      34.638   6.333  52.2920  0.00  0.00     0.000 C
ATOM     99  C4  BDP C   6      33.771   6.787  53.4570  0.00  0.00     0.000 C
ATOM    100  C5  BDP C   6      34.703   7.347  54.5570  0.00  0.00     0.000 C
ATOM    101  O5  BDP C   6      35.538   6.227  54.8930  0.00  0.00     0.000 O
BRANCH 100 102
ATOM    102   C  BDP C   6      33.955   7.758  55.7990  0.00  0.00     0.000 C
ATOM    103   O  BDP C   6      33.867   8.941  56.1580  0.00  0.00     0.000 OA
ATOM    104   O  BDP C   6      33.414   6.857  56.4500  0.00  0.00     0.000 OA
ENDBRANCH 100 102
ENDBRANCH 95 99
ENDBRANCH 75 95
ENDBRANCH 74 78
ENDBRANCH 58 74
ENDBRANCH 57 61
ENDBRANCH 37 57
ENDBRANCH 36 40
ENDBRANCH 23 36
ENDBRANCH 22 26
ENDBRANCH 1 22
TORSDOF 20
ENDMDL
MODEL 27
REMARK VINA RESULT:      -5.1     14.859     25.472
ROOT
ATOM      1  C1  NGY C   1      28.753  33.760  24.6120  0.00  0.00     0.000 C
ATOM      2  C2  NGY C   1      28.863  34.419  25.9800  0.00  0.00     0.000 C
ATOM      3  C3  NGY C   1      30.325  34.699  26.3160  0.00  0.00     0.000 C
ATOM      4  C4  NGY C   1      31.098  33.400  26.1910  0.00  0.00     0.000 C
ATOM      5  C5  NGY C   1      30.974  32.891  24.7580  0.00  0.00     0.000 C
ATOM      6  O5  NGY C   1      29.574  32.617  24.4930  0.00  0.00     0.000 O
ATOM      7   O  NGY C   1      30.407  35.246  27.6240  0.00  0.00     0.000 O
ATOM      9  HD  NGY C   1      30.004  35.143  28.3840  0.00  0.00     0.000 HD
ATOM      9   O  NGY C   1      32.466  33.589  26.5260  0.00  0.00     0.000 O
ATOM     11  HD  NGY C   1      32.063  33.486  27.2860  0.00  0.00     0.000 HD
ENDROOT
BRANCH 2 13
ATOM     11   N  NGY C   1      27.537  34.979  26.0840  0.00  0.00     0.000 N
ATOM     13  HD  NGY C   1      27.677  35.538  26.7310  0.00  0.00     0.000 HD
ATOM     13   C  NGY C   1      27.244  35.920  26.9810  0.00  0.00     0.000 C
ATOM     14   O  NGY C   1      28.056  36.246  27.8500  0.00  0.00     0.000 OA
ATOM     15   C  NGY C   1      25.901  36.572  26.8590  0.00  0.00     0.000 C
ENDBRANCH 2 13
BRANCH 5 16
ATOM     16   C  NGY C   1      31.697  31.614  24.4720  0.00  0.00     0.000 C
ATOM     17   O  NGY C   1      30.188  28.745  22.7550  0.00  0.00     0.000 OA
ATOM     18   O  NGY C   1      30.755  30.649  23.9950  0.00  0.00     0.000 O
ATOM     19   S  NGY C   1      31.368  29.421  23.2310  0.00  0.00     0.000 S
ATOM     20   O  NGY C   1      32.095  28.640  24.1960  0.00  0.00     0.000 OA
ATOM     21   O  NGY C   1      32.213  30.011  22.2060  0.00  0.00     0.000 OA
ENDBRANCH 5 16
BRANCH 1 22
ATOM     22  O4  BDP C   2      29.009  34.684  23.6620  0.00  0.00     0.000 O
BRANCH 22 26
ATOM     23  C1  BDP C   2      28.231  36.321  19.9640  0.00  0.00     0.000 C
ATOM     24  C2  BDP C   2      27.015  35.958  20.7830  0.00  0.00     0.000 C
ATOM     25  C3  BDP C   2      27.420  35.725  22.2140  0.00  0.00     0.000 C
ATOM     26  C4  BDP C   2      28.554  34.707  22.2840  0.00  0.00     0.000 C
ATOM     27  C5  BDP C   2      29.646  35.081  21.2900  0.00  0.00     0.000 C
ATOM     28  O5  BDP C   2      29.151  35.194  19.9300  0.00  0.00     0.000 O
ATOM     29   O  BDP C   2      26.076  37.031  20.8690  0.00  0.00     0.000 O
ATOM     31  HD  BDP C   2      25.651  37.114  21.6190  0.00  0.00     0.000 HD
ATOM     31   O  BDP C   2      26.274  35.228  22.8930  0.00  0.00     0.000 O
ATOM     33  HD  BDP C   2      25.849  35.311  23.6430  0.00  0.00     0.000 HD
BRANCH 27 33
ATOM     33   C  BDP C   2      30.755  34.057  21.2380  0.00  0.00     0.000 C
ATOM     34   O  BDP C   2      31.965  34.385  21.2730  0.00  0.00     0.000 OA
ATOM     35   O  BDP C   2      30.453  32.881  21.1260  0.00  0.00     0.000 OA
ENDBRANCH 27 33
BRANCH 23 36
ATOM     36  O4  SGN C   3      27.980  36.683  18.6840  0.00  0.00     0.000 O
BRANCH 36 40
ATOM     37  C1  SGN C   3      29.695  38.414  15.2940  0.00  0.00     0.000 C
ATOM     38  C2  SGN C   3      29.572  36.882  15.3280  0.00  0.00     0.000 C
ATOM     39  C3  SGN C   3      28.563  36.453  16.3840  0.00  0.00     0.000 C
ATOM     40  C4  SGN C   3      28.979  37.029  17.7200  0.00  0.00     0.000 C
ATOM     41  C5  SGN C   3      29.098  38.532  17.5880  0.00  0.00     0.000 C
ATOM     42  O5  SGN C   3      30.077  38.854  16.5880  0.00  0.00     0.000 O
ATOM     43   O  SGN C   3      28.513  35.033  16.4350  0.00  0.00     0.000 O
ATOM     45  HD  SGN C   3      28.296  35.363  17.2050  0.00  0.00     0.000 HD
BRANCH 38 47
ATOM     45   N  SGN C   3      30.665  37.006  14.3490  0.00  0.00     0.000 N
ATOM     47  HD  SGN C   3      30.396  37.083  15.1680  0.00  0.00     0.000 HD
ATOM     47   S  SGN C   3      30.327  36.273  12.9800  0.00  0.00     0.000 S
ATOM     48   O  SGN C   3      30.239  34.866  13.1530  0.00  0.00     0.000 OA
ATOM     49   O  SGN C   3      29.178  36.924  12.4400  0.00  0.00     0.000 OA
ATOM     50   O  SGN C   3      31.524  36.551  12.1890  0.00  0.00     0.000 OA
ENDBRANCH 38 47
BRANCH 41 51
ATOM     51   C  SGN C   3      29.503  39.231  18.8570  0.00  0.00     0.000 C
ATOM     52   O  SGN C   3      32.189  38.217  21.2310  0.00  0.00     0.000 OA
ATOM     53   O  SGN C   3      31.448  40.408  20.6140  0.00  0.00     0.000 OA
ATOM     54   O  SGN C   3      29.979  38.911  21.7840  0.00  0.00     0.000 OA
ATOM     55   O  SGN C   3      30.595  38.543  19.4270  0.00  0.00     0.000 O
ATOM     56   S  SGN C   3      31.098  39.069  20.9030  0.00  0.00     0.000 S
ENDBRANCH 41 51
BRANCH 37 57
ATOM     57  O4  IDS C   4      28.560  39.065  14.9420  0.00  0.00     0.000 O
BRANCH 57 61
ATOM     58  C1  IDS C   4      26.754  41.488  12.6320  0.00  0.00     0.000 C
ATOM     59  C2  IDS C   4      27.803  40.592  12.0540  0.00  0.00     0.000 C
ATOM     60  C3  IDS C   4      29.018  40.437  12.9710  0.00  0.00     0.000 C
ATOM     61  C4  IDS C   4      28.744  40.413  14.4680  0.00  0.00     0.000 C
ATOM     62  C5  IDS C   4      27.530  41.285  14.8110  0.00  0.00     0.000 C
ATOM     63  O5  IDS C   4      26.439  41.037  13.9380  0.00  0.00     0.000 O
ATOM     64   O  IDS C   4      29.844  41.550  12.6860  0.00  0.00     0.000 O
ATOM     66  HD  IDS C   4      29.882  42.082  13.3690  0.00  0.00     0.000 HD
BRANCH 59 66
ATOM     66   O  IDS C   4      27.282  39.232  11.8150  0.00  0.00     0.000 O
ATOM     67   S  IDS C   4      27.129  38.788  10.2950  0.00  0.00     0.000 S
ATOM     68   O  IDS C   4      28.491  38.770   9.8180  0.00  0.00     0.000 OA
ATOM     69   O  IDS C   4      26.484  37.490  10.3490  0.00  0.00     0.000 OA
ATOM     70   O  IDS C   4      26.339  39.809   9.6250  0.00  0.00     0.000 OA
ENDBRANCH 59 66
BRANCH 62 71
ATOM     71   C  IDS C   4      26.998  41.039  16.2110  0.00  0.00     0.000 C
ATOM     72   O  IDS C   4      26.038  40.313  16.3790  0.00  0.00     0.000 OA
ATOM     73   O  IDS C   4      27.501  41.678  17.1570  0.00  0.00     0.000 OA
ENDBRANCH 62 71
BRANCH 58 74
ATOM     74  O4  SGN C   5      26.953  42.820  12.4170  0.00  0.00     0.000 O
BRANCH 74 78
ATOM     75  C1  SGN C   5      25.231  46.435  11.2290  0.00  0.00     0.000 C
ATOM     76  C2  SGN C   5      25.061  46.061  12.7130  0.00  0.00     0.000 C
ATOM     77  C3  SGN C   5      26.008  44.916  13.0960  0.00  0.00     0.000 C
ATOM     78  C4  SGN C   5      25.943  43.774  12.0910  0.00  0.00     0.000 C
ATOM     79  C5  SGN C   5      26.156  44.321  10.6880  0.00  0.00     0.000 C
ATOM     80  O5  SGN C   5      25.123  45.296  10.3850  0.00  0.00     0.000 O
ATOM     81   O  SGN C   5      25.670  44.454  14.4000  0.00  0.00     0.000 O
ATOM     83  HD  SGN C   5      25.411  44.998  15.0220  0.00  0.00     0.000 HD
BRANCH 76 85
ATOM     83   N  SGN C   5      24.146  46.904  13.4930  0.00  0.00     0.000 N
ATOM     85  HD  SGN C   5      23.778  47.664  13.6830  0.00  0.00     0.000 HD
ATOM     85   S  SGN C   5      24.362  48.396  14.0600  0.00  0.00     0.000 S
ATOM     86   O  SGN C   5      23.190  48.849  14.7250  0.00  0.00     0.000 OA
ATOM     87   O  SGN C   5      25.568  48.389  14.8080  0.00  0.00     0.000 OA
ATOM     88   O  SGN C   5      24.502  49.072  12.6980  0.00  0.00     0.000 OA
ENDBRANCH 76 85
BRANCH 79 89
ATOM     89   C  SGN C   5      26.133  43.253   9.6130  0.00  0.00     0.000 C
ATOM     90   O  SGN C   5      25.595  43.804   8.3860  0.00  0.00     0.000 O
ATOM     91   S  SGN C   5      26.157  43.191   7.0130  0.00  0.00     0.000 S
ATOM     92   O  SGN C   5      27.592  43.271   7.0910  0.00  0.00     0.000 OA
ATOM     93   O  SGN C   5      25.684  41.833   6.9310  0.00  0.00     0.000 OA
ATOM     94   O  SGN C   5      25.589  44.052   6.0110  0.00  0.00     0.000 OA
ENDBRANCH 79 89
BRANCH 75 95
ATOM     95  O4  BDP C   6      26.485  46.968  11.1210  0.00  0.00     0.000 O
BRANCH 95 99
ATOM     96  C1  BDP C   6      27.980  49.654   8.1220  0.00  0.00     0.000 C
ATOM     97  C2  BDP C   6      26.496  49.572   8.3410  0.00  0.00     0.000 C
ATOM     98  C3  BDP C   6      26.087  48.897   9.6590  0.00  0.00     0.000 C
ATOM     99  C4  BDP C   6      26.825  47.582   9.8590  0.00  0.00     0.000 C
ATOM    100  C5  BDP C   6      28.333  47.842   9.6340  0.00  0.00     0.000 C
ATOM    101  O5  BDP C   6      28.395  48.310   8.2770  0.00  0.00     0.000 O
BRANCH 100 102
ATOM    102   C  BDP C   6      29.161  46.585   9.7300  0.00  0.00     0.000 C
ATOM    103   O  BDP C   6      28.935  45.589   9.0290  0.00  0.00     0.000 OA
ATOM    104   O  BDP C   6      30.095  46.592  10.5400  0.00  0.00     0.000 OA
ENDBRANCH 100 102
ENDBRANCH 95 99
ENDBRANCH 75 95
ENDBRANCH 74 78
ENDBRANCH 58 74
ENDBRANCH 57 61
ENDBRANCH 37 57
ENDBRANCH 36 40
ENDBRANCH 23 36
ENDBRANCH 22 26
ENDBRANCH 1 22
TORSDOF 20
ENDMDL
MODEL 28
REMARK VINA RESULT:      -5.1     21.948     31.050
ROOT
ATOM      1  C1  NGY C   1      18.518  15.382  62.6490  0.00  0.00     0.000 C
ATOM      2  C2  NGY C   1      17.095  14.884  62.8610  0.00  0.00     0.000 C
ATOM      3  C3  NGY C   1      16.101  16.026  62.6740  0.00  0.00     0.000 C
ATOM      4  C4  NGY C   1      16.502  17.162  63.5950  0.00  0.00     0.000 C
ATOM      5  C5  NGY C   1      17.910  17.620  63.2230  0.00  0.00     0.000 C
ATOM      6  O5  NGY C   1      18.821  16.511  63.4400  0.00  0.00     0.000 O
ATOM      7   O  NGY C   1      14.790  15.553  62.9480  0.00  0.00     0.000 O
ATOM      9  HD  NGY C   1      14.414  15.000  63.4980  0.00  0.00     0.000 HD
ATOM      9   O  NGY C   1      15.592  18.247  63.4900  0.00  0.00     0.000 O
ATOM     11  HD  NGY C   1      15.216  17.693  64.0410  0.00  0.00     0.000 HD
ENDROOT
BRANCH 2 13
ATOM     11   N  NGY C   1      17.012  13.715  62.0170  0.00  0.00     0.000 N
ATOM     13  HD  NGY C   1      16.468  13.242  62.4960  0.00  0.00     0.000 HD
ATOM     13   C  NGY C   1      16.262  12.665  62.3490  0.00  0.00     0.000 C
ATOM     14   O  NGY C   1      15.725  12.591  63.4560  0.00  0.00     0.000 OA
ATOM     15   C  NGY C   1      16.088  11.606  61.3040  0.00  0.00     0.000 C
ENDBRANCH 2 13
BRANCH 5 16
ATOM     16   C  NGY C   1      18.447  18.750  64.0420  0.00  0.00     0.000 C
ATOM     17   O  NGY C   1      19.152  18.523  67.6350  0.00  0.00     0.000 OA
ATOM     18   O  NGY C   1      18.394  18.382  65.4240  0.00  0.00     0.000 O
ATOM     19   S  NGY C   1      19.306  19.225  66.3870  0.00  0.00     0.000 S
ATOM     20   O  NGY C   1      18.757  20.556  66.4350  0.00  0.00     0.000 OA
ATOM     21   O  NGY C   1      20.628  19.164  65.7860  0.00  0.00     0.000 OA
ENDBRANCH 5 16
BRANCH 1 22
ATOM     22  O4  BDP C   2      18.708  15.605  61.3310  0.00  0.00     0.000 O
BRANCH 22 26
ATOM     23  C1  BDP C   2      21.131  15.853  58.0100  0.00  0.00     0.000 C
ATOM     24  C2  BDP C   2      20.932  14.463  58.5670  0.00  0.00     0.000 C
ATOM     25  C3  BDP C   2      19.766  14.463  59.5200  0.00  0.00     0.000 C
ATOM     26  C4  BDP C   2      19.948  15.546  60.5790  0.00  0.00     0.000 C
ATOM     27  C5  BDP C   2      20.317  16.864  59.9110  0.00  0.00     0.000 C
ATOM     28  O5  BDP C   2      21.505  16.761  59.0850  0.00  0.00     0.000 O
ATOM     29   O  BDP C   2      20.546  13.525  57.5620  0.00  0.00     0.000 O
ATOM     31  HD  BDP C   2      19.986  12.909  57.8020  0.00  0.00     0.000 HD
ATOM     31   O  BDP C   2      19.733  13.180  60.1330  0.00  0.00     0.000 O
ATOM     33  HD  BDP C   2      19.173  12.565  60.3730  0.00  0.00     0.000 HD
BRANCH 27 33
ATOM     33   C  BDP C   2      20.608  17.956  60.9130  0.00  0.00     0.000 C
ATOM     34   O  BDP C   2      20.065  19.085  60.8430  0.00  0.00     0.000 OA
ATOM     35   O  BDP C   2      21.423  17.735  61.7930  0.00  0.00     0.000 OA
ENDBRANCH 27 33
BRANCH 23 36
ATOM     36  O4  SGN C   3      22.069  15.960  57.0400  0.00  0.00     0.000 O
BRANCH 36 40
ATOM     37  C1  SGN C   3      23.308  18.074  53.6610  0.00  0.00     0.000 C
ATOM     38  C2  SGN C   3      23.539  18.725  55.0340  0.00  0.00     0.000 C
ATOM     39  C3  SGN C   3      23.449  17.682  56.1390  0.00  0.00     0.000 C
ATOM     40  C4  SGN C   3      22.107  16.988  56.0470  0.00  0.00     0.000 C
ATOM     41  C5  SGN C   3      21.956  16.400  54.6610  0.00  0.00     0.000 C
ATOM     42  O5  SGN C   3      22.037  17.445  53.6790  0.00  0.00     0.000 O
ATOM     43   O  SGN C   3      23.606  18.321  57.4000  0.00  0.00     0.000 O
ATOM     45  HD  SGN C   3      23.129  17.604  57.4900  0.00  0.00     0.000 HD
BRANCH 38 47
ATOM     45   N  SGN C   3      23.639  20.189  55.1740  0.00  0.00     0.000 N
ATOM     47  HD  SGN C   3      23.293  19.443  55.4460  0.00  0.00     0.000 HD
ATOM     47   S  SGN C   3      24.887  20.780  54.3870  0.00  0.00     0.000 S
ATOM     48   O  SGN C   3      26.112  20.342  54.9550  0.00  0.00     0.000 OA
ATOM     49   O  SGN C   3      24.677  20.484  53.0080  0.00  0.00     0.000 OA
ATOM     50   O  SGN C   3      24.757  22.211  54.6570  0.00  0.00     0.000 OA
ENDBRANCH 38 47
BRANCH 41 51
ATOM     51   C  SGN C   3      20.658  15.673  54.4390  0.00  0.00     0.000 C
ATOM     52   O  SGN C   3      17.937  16.590  52.0650  0.00  0.00     0.000 OA
ATOM     53   O  SGN C   3      18.683  14.426  52.7660  0.00  0.00     0.000 OA
ATOM     54   O  SGN C   3      17.688  15.939  54.3420  0.00  0.00     0.000 OA
ATOM     55   O  SGN C   3      19.938  16.327  53.4180  0.00  0.00     0.000 O
ATOM     56   S  SGN C   3      18.419  15.768  53.1220  0.00  0.00     0.000 S
ENDBRANCH 41 51
BRANCH 37 57
ATOM     57  O4  IDS C   4      24.234  17.149  53.3100  0.00  0.00     0.000 O
BRANCH 57 61
ATOM     58  C1  IDS C   4      26.245  16.293  50.1960  0.00  0.00     0.000 C
ATOM     59  C2  IDS C   4      25.510  17.595  50.2410  0.00  0.00     0.000 C
ATOM     60  C3  IDS C   4      24.128  17.473  50.8900  0.00  0.00     0.000 C
ATOM     61  C4  IDS C   4      24.004  16.493  52.0480  0.00  0.00     0.000 C
ATOM     62  C5  IDS C   4      24.961  15.309  51.8640  0.00  0.00     0.000 C
ATOM     63  O5  IDS C   4      26.265  15.737  51.5000  0.00  0.00     0.000 O
ATOM     64   O  IDS C   4      23.266  17.046  49.8520  0.00  0.00     0.000 O
ATOM     66  HD  IDS C   4      22.982  16.243  50.0040  0.00  0.00     0.000 HD
BRANCH 59 66
ATOM     66   O  IDS C   4      26.248  18.608  51.0190  0.00  0.00     0.000 O
ATOM     67   S  IDS C   4      27.084  19.675  50.1840  0.00  0.00     0.000 S
ATOM     68   O  IDS C   4      26.064  20.404  49.4680  0.00  0.00     0.000 OA
ATOM     69   O  IDS C   4      27.803  20.447  51.1780  0.00  0.00     0.000 OA
ATOM     70   O  IDS C   4      27.947  18.931  49.2790  0.00  0.00     0.000 OA
ENDBRANCH 59 66
BRANCH 62 71
ATOM     71   C  IDS C   4      25.138  14.485  53.1250  0.00  0.00     0.000 C
ATOM     72   O  IDS C   4      24.165  14.082  53.7320  0.00  0.00     0.000 OA
ATOM     73   O  IDS C   4      26.291  14.326  53.5730  0.00  0.00     0.000 OA
ENDBRANCH 62 71
BRANCH 58 74
ATOM     74  O4  SGN C   5      25.935  15.494  49.1360  0.00  0.00     0.000 O
BRANCH 74 78
ATOM     75  C1  SGN C   5      27.345  12.792  46.2800  0.00  0.00     0.000 C
ATOM     76  C2  SGN C   5      27.378  12.308  47.7430  0.00  0.00     0.000 C
ATOM     77  C3  SGN C   5      26.534  13.227  48.6370  0.00  0.00     0.000 C
ATOM     78  C4  SGN C   5      26.856  14.695  48.3940  0.00  0.00     0.000 C
ATOM     79  C5  SGN C   5      26.751  14.999  46.9070  0.00  0.00     0.000 C
ATOM     80  O5  SGN C   5      27.690  14.167  46.1750  0.00  0.00     0.000 O
ATOM     81   O  SGN C   5      26.764  12.883  49.9990  0.00  0.00     0.000 O
ATOM     83  HD  SGN C   5      26.879  12.061  50.2470  0.00  0.00     0.000 HD
BRANCH 76 85
ATOM     83   N  SGN C   5      27.946  11.053  47.2360  0.00  0.00     0.000 N
ATOM     85  HD  SGN C   5      27.878  10.228  46.9820  0.00  0.00     0.000 HD
ATOM     85   S  SGN C   5      27.625   9.536  47.6710  0.00  0.00     0.000 S
ATOM     86   O  SGN C   5      28.377   8.623  46.8830  0.00  0.00     0.000 OA
ATOM     87   O  SGN C   5      27.788   9.461  49.0790  0.00  0.00     0.000 OA
ATOM     88   O  SGN C   5      26.162   9.544  47.2350  0.00  0.00     0.000 OA
ENDBRANCH 76 85
BRANCH 79 89
ATOM     89   C  SGN C   5      27.031  16.448  46.5650  0.00  0.00     0.000 C
ATOM     90   O  SGN C   5      27.561  16.540  45.2200  0.00  0.00     0.000 O
ATOM     91   S  SGN C   5      27.213  17.874  44.3980  0.00  0.00     0.000 S
ATOM     92   O  SGN C   5      25.783  18.026  44.4570  0.00  0.00     0.000 OA
ATOM     93   O  SGN C   5      27.909  18.960  45.0390  0.00  0.00     0.000 OA
ATOM     94   O  SGN C   5      27.704  17.586  43.0780  0.00  0.00     0.000 OA
ENDBRANCH 79 89
BRANCH 75 95
ATOM     95  O4  BDP C   6      26.059  12.608  45.8560  0.00  0.00     0.000 O
BRANCH 95 99
ATOM     96  C1  BDP C   6      24.929  11.496  41.8650  0.00  0.00     0.000 C
ATOM     97  C2  BDP C   6      26.388  11.518  42.2210  0.00  0.00     0.000 C
ATOM     98  C3  BDP C   6      26.671  11.546  43.7310  0.00  0.00     0.000 C
ATOM     99  C4  BDP C   6      25.837  12.611  44.4290  0.00  0.00     0.000 C
ATOM    100  C5  BDP C   6      24.366  12.432  43.9870  0.00  0.00     0.000 C
ATOM    101  O5  BDP C   6      24.418  12.616  42.5630  0.00  0.00     0.000 O
BRANCH 100 102
ATOM    102   C  BDP C   6      23.454  13.487  44.5590  0.00  0.00     0.000 C
ATOM    103   O  BDP C   6      23.611  14.694  44.3270  0.00  0.00     0.000 OA
ATOM    104   O  BDP C   6      22.522  13.094  45.2710  0.00  0.00     0.000 OA
ENDBRANCH 100 102
ENDBRANCH 95 99
ENDBRANCH 75 95
ENDBRANCH 74 78
ENDBRANCH 58 74
ENDBRANCH 57 61
ENDBRANCH 37 57
ENDBRANCH 36 40
ENDBRANCH 23 36
ENDBRANCH 22 26
ENDBRANCH 1 22
TORSDOF 20
ENDMDL
MODEL 29
REMARK VINA RESULT:      -4.6     30.190     35.361
ROOT
ATOM      1  C1  NGY C   1      46.443   6.005  41.4620  0.00  0.00     0.000 C
ATOM      2  C2  NGY C   1      47.497   4.968  41.8240  0.00  0.00     0.000 C
ATOM      3  C3  NGY C   1      48.768   5.655  42.3130  0.00  0.00     0.000 C
ATOM      4  C4  NGY C   1      49.212   6.644  41.2520  0.00  0.00     0.000 C
ATOM      5  C5  NGY C   1      48.103   7.671  41.0450  0.00  0.00     0.000 C
ATOM      6  O5  NGY C   1      46.925   6.977  40.5590  0.00  0.00     0.000 O
ATOM      7   O  NGY C   1      49.759   4.671  42.5750  0.00  0.00     0.000 O
ATOM      9  HD  NGY C   1      50.013   3.917  42.2350  0.00  0.00     0.000 HD
ATOM      9   O  NGY C   1      50.415   7.294  41.6360  0.00  0.00     0.000 O
ATOM     11  HD  NGY C   1      50.669   6.540  41.2960  0.00  0.00     0.000 HD
ENDROOT
BRANCH 2 13
ATOM     11   N  NGY C   1      46.748   4.042  42.6410  0.00  0.00     0.000 N
ATOM     13  HD  NGY C   1      47.204   3.323  42.4820  0.00  0.00     0.000 HD
ATOM     13   C  NGY C   1      47.081   2.755  42.7220  0.00  0.00     0.000 C
ATOM     14   O  NGY C   1      47.951   2.275  41.9930  0.00  0.00     0.000 OA
ATOM     15   C  NGY C   1      46.366   1.939  43.7560  0.00  0.00     0.000 C
ENDBRANCH 2 13
BRANCH 5 16
ATOM     16   C  NGY C   1      48.398   8.728  40.0290  0.00  0.00     0.000 C
ATOM     17   O  NGY C   1      49.545  12.111  40.8620  0.00  0.00     0.000 OA
ATOM     18   O  NGY C   1      48.607   9.971  40.7040  0.00  0.00     0.000 O
ATOM     19   S  NGY C   1      49.355  11.077  39.8770  0.00  0.00     0.000 S
ATOM     20   O  NGY C   1      48.470  11.486  38.8170  0.00  0.00     0.000 OA
ATOM     21   O  NGY C   1      50.565  10.425  39.4040  0.00  0.00     0.000 OA
ENDBRANCH 5 16
BRANCH 1 22
ATOM     22  O4  BDP C   2      45.958   6.547  42.5990  0.00  0.00     0.000 O
BRANCH 22 26
ATOM     23  C1  BDP C   2      42.817   8.095  44.7680  0.00  0.00     0.000 C
ATOM     24  C2  BDP C   2      42.511   6.839  43.9860  0.00  0.00     0.000 C
ATOM     25  C3  BDP C   2      43.798   6.188  43.5510  0.00  0.00     0.000 C
ATOM     26  C4  BDP C   2      44.675   7.192  42.8120  0.00  0.00     0.000 C
ATOM     27  C5  BDP C   2      44.770   8.484  43.6130  0.00  0.00     0.000 C
ATOM     28  O5  BDP C   2      43.471   9.063  43.9000  0.00  0.00     0.000 O
ATOM     29   O  BDP C   2      41.882   5.839  44.7870  0.00  0.00     0.000 O
ATOM     31  HD  BDP C   2      42.093   5.017  44.6170  0.00  0.00     0.000 HD
ATOM     31   O  BDP C   2      43.446   5.116  42.6850  0.00  0.00     0.000 O
ATOM     33  HD  BDP C   2      43.658   4.293  42.5150  0.00  0.00     0.000 HD
BRANCH 27 33
ATOM     33   C  BDP C   2      45.547   9.558  42.8890  0.00  0.00     0.000 C
ATOM     34   O  BDP C   2      46.665   9.958  43.2920  0.00  0.00     0.000 OA
ATOM     35   O  BDP C   2      45.046  10.069  41.9010  0.00  0.00     0.000 OA
ENDBRANCH 27 33
BRANCH 23 36
ATOM     36  O4  SGN C   3      41.747   8.704  45.3280  0.00  0.00     0.000 O
BRANCH 36 40
ATOM     37  C1  SGN C   3      40.356  10.394  48.8830  0.00  0.00     0.000 C
ATOM     38  C2  SGN C   3      40.784  11.349  47.7580  0.00  0.00     0.000 C
ATOM     39  C3  SGN C   3      40.838  10.614  46.4270  0.00  0.00     0.000 C
ATOM     40  C4  SGN C   3      41.768   9.428  46.5610  0.00  0.00     0.000 C
ATOM     41  C5  SGN C   3      41.286   8.558  47.7010  0.00  0.00     0.000 C
ATOM     42  O5  SGN C   3      41.279   9.316  48.9210  0.00  0.00     0.000 O
ATOM     43   O  SGN C   3      41.293  11.506  45.4170  0.00  0.00     0.000 O
ATOM     45  HD  SGN C   3      41.500  10.692  45.2060  0.00  0.00     0.000 HD
BRANCH 38 47
ATOM     45   N  SGN C   3      40.852  12.215  48.9490  0.00  0.00     0.000 N
ATOM     47  HD  SGN C   3      41.146  11.521  48.5230  0.00  0.00     0.000 HD
ATOM     47   S  SGN C   3      40.094  13.595  48.7280  0.00  0.00     0.000 S
ATOM     48   O  SGN C   3      40.740  14.389  47.7440  0.00  0.00     0.000 OA
ATOM     49   O  SGN C   3      38.724  13.275  48.4940  0.00  0.00     0.000 OA
ATOM     50   O  SGN C   3      40.282  14.247  50.0230  0.00  0.00     0.000 OA
ENDBRANCH 38 47
BRANCH 41 51
ATOM     51   C  SGN C   3      42.127   7.333  47.9380  0.00  0.00     0.000 C
ATOM     52   O  SGN C   3      45.844   7.150  48.1210  0.00  0.00     0.000 OA
ATOM     53   O  SGN C   3      44.195   5.881  49.3060  0.00  0.00     0.000 OA
ATOM     54   O  SGN C   3      44.398   5.687  46.9210  0.00  0.00     0.000 OA
ATOM     55   O  SGN C   3      43.484   7.714  47.9830  0.00  0.00     0.000 O
ATOM     56   S  SGN C   3      44.582   6.493  48.0920  0.00  0.00     0.000 S
ENDBRANCH 41 51
BRANCH 37 57
ATOM     57  O4  IDS C   4      39.109   9.879  48.7450  0.00  0.00     0.000 O
BRANCH 57 61
ATOM     58  C1  IDS C   4      35.488   9.347  49.7810  0.00  0.00     0.000 C
ATOM     59  C2  IDS C   4      36.008  10.746  49.6820  0.00  0.00     0.000 C
ATOM     60  C3  IDS C   4      37.436  10.885  50.2160  0.00  0.00     0.000 C
ATOM     61  C4  IDS C   4      38.372   9.710  49.9710  0.00  0.00     0.000 C
ATOM     62  C5  IDS C   4      37.596   8.388  49.9660  0.00  0.00     0.000 C
ATOM     63  O5  IDS C   4      36.421   8.470  49.1720  0.00  0.00     0.000 O
ATOM     64   O  IDS C   4      37.295  11.059  51.6130  0.00  0.00     0.000 O
ATOM     66  HD  IDS C   4      37.616  10.376  52.0380  0.00  0.00     0.000 HD
BRANCH 59 66
ATOM     66   O  IDS C   4      36.037  11.216  48.2830  0.00  0.00     0.000 O
ATOM     67   S  IDS C   4      35.037  12.397  47.9100  0.00  0.00     0.000 S
ATOM     68   O  IDS C   4      35.524  13.502  48.7000  0.00  0.00     0.000 OA
ATOM     69   O  IDS C   4      35.175  12.563  46.4770  0.00  0.00     0.000 OA
ATOM     70   O  IDS C   4      33.707  11.982  48.3290  0.00  0.00     0.000 OA
ENDBRANCH 59 66
BRANCH 62 71
ATOM     71   C  IDS C   4      38.395   7.232  49.3950  0.00  0.00     0.000 C
ATOM     72   O  IDS C   4      38.076   6.736  48.3320  0.00  0.00     0.000 OA
ATOM     73   O  IDS C   4      39.309   6.743  50.0890  0.00  0.00     0.000 OA
ENDBRANCH 62 71
BRANCH 58 74
ATOM     74  O4  SGN C   5      34.954   9.016  50.9910  0.00  0.00     0.000 O
BRANCH 74 78
ATOM     75  C1  SGN C   5      32.318   6.532  53.0700  0.00  0.00     0.000 C
ATOM     76  C2  SGN C   5      33.667   5.903  52.6720  0.00  0.00     0.000 C
ATOM     77  C3  SGN C   5      34.662   6.986  52.2330  0.00  0.00     0.000 C
ATOM     78  C4  SGN C   5      34.035   7.951  51.2360  0.00  0.00     0.000 C
ATOM     79  C5  SGN C   5      32.731   8.491  51.8030  0.00  0.00     0.000 C
ATOM     80  O5  SGN C   5      31.818   7.389  52.0520  0.00  0.00     0.000 O
ATOM     81   O  SGN C   5      35.808   6.359  51.6690  0.00  0.00     0.000 O
ATOM     83  HD  SGN C   5      36.123   5.617  51.9870  0.00  0.00     0.000 HD
BRANCH 76 85
ATOM     83   N  SGN C   5      33.761   4.454  52.8870  0.00  0.00     0.000 N
ATOM     85  HD  SGN C   5      33.592   3.733  53.3350  0.00  0.00     0.000 HD
ATOM     85   S  SGN C   5      34.000   3.636  54.2530  0.00  0.00     0.000 S
ATOM     86   O  SGN C   5      33.975   2.236  54.0050  0.00  0.00     0.000 OA
ATOM     87   O  SGN C   5      35.169   4.164  54.8590  0.00  0.00     0.000 OA
ATOM     88   O  SGN C   5      32.712   4.082  54.9410  0.00  0.00     0.000 OA
ENDBRANCH 76 85
BRANCH 79 89
ATOM     89   C  SGN C   5      32.040   9.483  50.8890  0.00  0.00     0.000 C
ATOM     90   O  SGN C   5      31.539   8.801  49.7140  0.00  0.00     0.000 O
ATOM     91   S  SGN C   5      30.203   9.394  49.0510  0.00  0.00     0.000 S
ATOM     92   O  SGN C   5      29.232   9.491  50.1100  0.00  0.00     0.000 OA
ATOM     93   O  SGN C   5      30.540  10.679  48.4950  0.00  0.00     0.000 OA
ATOM     94   O  SGN C   5      29.866   8.415  48.0540  0.00  0.00     0.000 OA
ENDBRANCH 79 89
BRANCH 75 95
ATOM     95  O4  BDP C   6      32.565   7.258  54.2010  0.00  0.00     0.000 O
BRANCH 95 99
ATOM     96  C1  BDP C   6      29.697   8.265  57.2350  0.00  0.00     0.000 C
ATOM     97  C2  BDP C   6      29.321   7.246  56.1960  0.00  0.00     0.000 C
ATOM     98  C3  BDP C   6      30.510   6.677  55.4070  0.00  0.00     0.000 C
ATOM     99  C4  BDP C   6      31.417   7.788  54.8990  0.00  0.00     0.000 C
ATOM    100  C5  BDP C   6      31.738   8.725  56.0870  0.00  0.00     0.000 C
ATOM    101  O5  BDP C   6      30.447   9.208  56.4920  0.00  0.00     0.000 O
BRANCH 100 102
ATOM    102   C  BDP C   6      32.573   9.913  55.6810  0.00  0.00     0.000 C
ATOM    103   O  BDP C   6      33.808   9.855  55.5920  0.00  0.00     0.000 OA
ATOM    104   O  BDP C   6      31.967  10.960  55.4250  0.00  0.00     0.000 OA
ENDBRANCH 100 102
ENDBRANCH 95 99
ENDBRANCH 75 95
ENDBRANCH 74 78
ENDBRANCH 58 74
ENDBRANCH 57 61
ENDBRANCH 37 57
ENDBRANCH 36 40
ENDBRANCH 23 36
ENDBRANCH 22 26
ENDBRANCH 1 22
TORSDOF 20
ENDMDL
MODEL 30
REMARK VINA RESULT:      -4.6     34.195     40.155
ROOT
ATOM      1  C1  NGY C   1      13.057  25.907  69.3560  0.00  0.00     0.000 C
ATOM      2  C2  NGY C   1      14.044  27.018  69.6860  0.00  0.00     0.000 C
ATOM      3  C3  NGY C   1      14.675  26.775  71.0530  0.00  0.00     0.000 C
ATOM      4  C4  NGY C   1      13.561  26.616  72.0700  0.00  0.00     0.000 C
ATOM      5  C5  NGY C   1      12.698  25.424  71.6680  0.00  0.00     0.000 C
ATOM      6  O5  NGY C   1      12.101  25.709  70.3770  0.00  0.00     0.000 O
ATOM      7   O  NGY C   1      15.536  27.860  71.3690  0.00  0.00     0.000 O
ATOM      9  HD  NGY C   1      15.549  28.718  71.2510  0.00  0.00     0.000 HD
ATOM      9   O  NGY C   1      14.088  26.420  73.3750  0.00  0.00     0.000 O
ATOM     11  HD  NGY C   1      14.101  27.278  73.2560  0.00  0.00     0.000 HD
ENDROOT
BRANCH 2 13
ATOM     11   N  NGY C   1      14.801  27.112  68.4600  0.00  0.00     0.000 N
ATOM     13  HD  NGY C   1      15.053  27.939  68.5210  0.00  0.00     0.000 HD
ATOM     13   C  NGY C   1      15.405  28.243  68.0980  0.00  0.00     0.000 C
ATOM     14   O  NGY C   1      15.222  29.291  68.7210  0.00  0.00     0.000 OA
ATOM     15   C  NGY C   1      16.329  28.165  66.9210  0.00  0.00     0.000 C
ENDBRANCH 2 13
BRANCH 5 16
ATOM     16   C  NGY C   1      11.554  25.130  72.5850  0.00  0.00     0.000 C
ATOM     17   O  NGY C   1       8.057  24.917  71.4970  0.00  0.00     0.000 OA
ATOM     18   O  NGY C   1      10.330  25.337  71.8750  0.00  0.00     0.000 O
ATOM     19   S  NGY C   1       9.057  24.664  72.5030  0.00  0.00     0.000 S
ATOM     20   O  NGY C   1       8.778  25.352  73.7370  0.00  0.00     0.000 OA
ATOM     21   O  NGY C   1       9.431  23.272  72.6860  0.00  0.00     0.000 OA
ENDBRANCH 5 16
BRANCH 1 22
ATOM     22  O4  BDP C   2      13.748  24.783  69.0670  0.00  0.00     0.000 O
BRANCH 22 26
ATOM     23  C1  BDP C   2      14.148  21.175  67.1220  0.00  0.00     0.000 C
ATOM     24  C2  BDP C   2      14.155  22.397  66.2330  0.00  0.00     0.000 C
ATOM     25  C3  BDP C   2      14.371  23.630  67.0710  0.00  0.00     0.000 C
ATOM     26  C4  BDP C   2      13.354  23.682  68.2070  0.00  0.00     0.000 C
ATOM     27  C5  BDP C   2      13.309  22.338  68.9220  0.00  0.00     0.000 C
ATOM     28  O5  BDP C   2      13.010  21.236  68.0270  0.00  0.00     0.000 O
ATOM     29   O  BDP C   2      15.260  22.406  65.3290  0.00  0.00     0.000 O
ATOM     31  HD  BDP C   2      15.611  23.178  65.1550  0.00  0.00     0.000 HD
ATOM     31   O  BDP C   2      14.200  24.749  66.2110  0.00  0.00     0.000 O
ATOM     33  HD  BDP C   2      14.551  25.522  66.0360  0.00  0.00     0.000 HD
BRANCH 27 33
ATOM     33   C  BDP C   2      12.250  22.292  69.9980  0.00  0.00     0.000 C
ATOM     34   O  BDP C   2      11.063  22.631  69.7780  0.00  0.00     0.000 OA
ATOM     35   O  BDP C   2      12.578  21.945  71.1200  0.00  0.00     0.000 OA
ENDBRANCH 27 33
BRANCH 23 36
ATOM     36  O4  SGN C   3      14.092  19.988  66.4740  0.00  0.00     0.000 O
BRANCH 36 40
ATOM     37  C1  SGN C   3      14.639  15.865  66.8280  0.00  0.00     0.000 C
ATOM     38  C2  SGN C   3      13.273  16.441  67.2350  0.00  0.00     0.000 C
ATOM     39  C3  SGN C   3      13.088  17.834  66.6500  0.00  0.00     0.000 C
ATOM     40  C4  SGN C   3      14.240  18.708  67.0950  0.00  0.00     0.000 C
ATOM     41  C5  SGN C   3      15.538  18.056  66.6750  0.00  0.00     0.000 C
ATOM     42  O5  SGN C   3      15.646  16.757  67.2790  0.00  0.00     0.000 O
ATOM     43   O  SGN C   3      11.844  18.365  67.0900  0.00  0.00     0.000 O
ATOM     45  HD  SGN C   3      12.400  19.010  66.9270  0.00  0.00     0.000 HD
BRANCH 38 47
ATOM     45   N  SGN C   3      13.278  15.157  67.9570  0.00  0.00     0.000 N
ATOM     47  HD  SGN C   3      13.620  15.945  67.8500  0.00  0.00     0.000 HD
ATOM     47   S  SGN C   3      11.955  14.316  67.6890  0.00  0.00     0.000 S
ATOM     48   O  SGN C   3      10.813  14.961  68.2330  0.00  0.00     0.000 OA
ATOM     49   O  SGN C   3      11.927  14.035  66.2910  0.00  0.00     0.000 OA
ATOM     50   O  SGN C   3      12.204  13.110  68.4760  0.00  0.00     0.000 OA
ENDBRANCH 38 47
BRANCH 41 51
ATOM     51   C  SGN C   3      16.769  18.833  67.0560  0.00  0.00     0.000 C
ATOM     52   O  SGN C   3      18.987  20.795  64.7960  0.00  0.00     0.000 OA
ATOM     53   O  SGN C   3      18.385  21.208  67.0760  0.00  0.00     0.000 OA
ATOM     54   O  SGN C   3      19.666  19.264  66.4890  0.00  0.00     0.000 OA
ATOM     55   O  SGN C   3      17.281  19.468  65.9060  0.00  0.00     0.000 O
ATOM     56   S  SGN C   3      18.715  20.256  66.0850  0.00  0.00     0.000 S
ENDBRANCH 41 51
BRANCH 37 57
ATOM     57  O4  IDS C   4      14.801  15.681  65.4950  0.00  0.00     0.000 O
BRANCH 57 61
ATOM     58  C1  IDS C   4      16.009  12.750  63.3920  0.00  0.00     0.000 C
ATOM     59  C2  IDS C   4      15.784  12.540  64.8560  0.00  0.00     0.000 C
ATOM     60  C3  IDS C   4      16.253  13.725  65.7030  0.00  0.00     0.000 C
ATOM     61  C4  IDS C   4      16.063  15.110  65.1000  0.00  0.00     0.000 C
ATOM     62  C5  IDS C   4      16.188  15.060  63.5730  0.00  0.00     0.000 C
ATOM     63  O5  IDS C   4      15.434  13.991  63.0180  0.00  0.00     0.000 O
ATOM     64   O  IDS C   4      17.637  13.514  65.9070  0.00  0.00     0.000 O
ATOM     66  HD  IDS C   4      18.100  14.121  65.4970  0.00  0.00     0.000 HD
BRANCH 59 66
ATOM     66   O  IDS C   4      14.355  12.345  65.1630  0.00  0.00     0.000 O
ATOM     67   S  IDS C   4      13.930  10.904  65.6880  0.00  0.00     0.000 S
ATOM     68   O  IDS C   4      14.615  10.801  66.9540  0.00  0.00     0.000 OA
ATOM     69   O  IDS C   4      12.484  10.951  65.7770  0.00  0.00     0.000 OA
ATOM     70   O  IDS C   4      14.429   9.932  64.7270  0.00  0.00     0.000 OA
ENDBRANCH 59 66
BRANCH 62 71
ATOM     71   C  IDS C   4      15.678  16.316  62.8920  0.00  0.00     0.000 C
ATOM     72   O  IDS C   4      15.955  16.535  61.7290  0.00  0.00     0.000 OA
ATOM     73   O  IDS C   4      15.063  17.156  63.5800  0.00  0.00     0.000 OA
ENDBRANCH 62 71
BRANCH 58 74
ATOM     74  O4  SGN C   5      17.260  12.435  62.9510  0.00  0.00     0.000 O
BRANCH 74 78
ATOM     75  C1  SGN C   5      19.564  11.150  59.7130  0.00  0.00     0.000 C
ATOM     76  C2  SGN C   5      19.343  12.670  59.8240  0.00  0.00     0.000 C
ATOM     77  C3  SGN C   5      18.791  13.039  61.2070  0.00  0.00     0.000 C
ATOM     78  C4  SGN C   5      17.622  12.147  61.6000  0.00  0.00     0.000 C
ATOM     79  C5  SGN C   5      18.026  10.687  61.4550  0.00  0.00     0.000 C
ATOM     80  O5  SGN C   5      18.399  10.422  60.0770  0.00  0.00     0.000 O
ATOM     81   O  SGN C   5      18.395  14.407  61.1970  0.00  0.00     0.000 O
ATOM     83  HD  SGN C   5      18.842  15.006  60.7600  0.00  0.00     0.000 HD
BRANCH 76 85
ATOM     83   N  SGN C   5      20.527  12.658  58.9550  0.00  0.00     0.000 N
ATOM     85  HD  SGN C   5      21.282  12.984  58.6840  0.00  0.00     0.000 HD
ATOM     85   S  SGN C   5      21.278  13.887  58.2340  0.00  0.00     0.000 S
ATOM     86   O  SGN C   5      22.417  13.422  57.5190  0.00  0.00     0.000 OA
ATOM     87   O  SGN C   5      20.300  14.601  57.4960  0.00  0.00     0.000 OA
ATOM     88   O  SGN C   5      21.702  14.598  59.5170  0.00  0.00     0.000 OA
ENDBRANCH 76 85
BRANCH 79 89
ATOM     89   C  SGN C   5      16.932   9.715  61.8480  0.00  0.00     0.000 C
ATOM     90   O  SGN C   5      16.010   9.544  60.7440  0.00  0.00     0.000 O
ATOM     91   S  SGN C   5      15.302   8.109  60.6130  0.00  0.00     0.000 S
ATOM     92   O  SGN C   5      16.359   7.132  60.6270  0.00  0.00     0.000 OA
ATOM     93   O  SGN C   5      14.410   7.972  61.7350  0.00  0.00     0.000 OA
ATOM     94   O  SGN C   5      14.618   8.193  59.3510  0.00  0.00     0.000 OA
ENDBRANCH 79 89
BRANCH 75 95
ATOM     95  O4  BDP C   6      20.577  10.858  60.5820  0.00  0.00     0.000 O
BRANCH 95 99
ATOM     96  C1  BDP C   6      23.403   7.693  59.9130  0.00  0.00     0.000 C
ATOM     97  C2  BDP C   6      22.325   7.926  58.8920  0.00  0.00     0.000 C
ATOM     98  C3  BDP C   6      21.619   9.284  59.0150  0.00  0.00     0.000 C
ATOM     99  C4  BDP C   6      21.195   9.559  60.4500  0.00  0.00     0.000 C
ATOM    100  C5  BDP C   6      22.416   9.309  61.3650  0.00  0.00     0.000 C
ATOM    101  O5  BDP C   6      22.731   7.926  61.1370  0.00  0.00     0.000 O
BRANCH 100 102
ATOM    102   C  BDP C   6      22.091   9.476  62.8280  0.00  0.00     0.000 C
ATOM    103   O  BDP C   6      22.935   9.850  63.6550  0.00  0.00     0.000 OA
ATOM    104   O  BDP C   6      20.928   9.234  63.1730  0.00  0.00     0.000 OA
ENDBRANCH 100 102
ENDBRANCH 95 99
ENDBRANCH 75 95
ENDBRANCH 74 78
ENDBRANCH 58 74
ENDBRANCH 57 61
ENDBRANCH 37 57
ENDBRANCH 36 40
ENDBRANCH 23 36
ENDBRANCH 22 26
ENDBRANCH 1 22
TORSDOF 20
ENDMDL
MODEL 31
REMARK VINA RESULT:      -4.5     18.209     24.267
ROOT
ATOM      1  C1  NGY C   1      36.108  40.189   4.0560  0.00  0.00     0.000 C
ATOM      2  C2  NGY C   1      35.848  41.625   3.6220  0.00  0.00     0.000 C
ATOM      3  C3  NGY C   1      35.079  41.647   2.3050  0.00  0.00     0.000 C
ATOM      4  C4  NGY C   1      35.849  40.823   1.2900  0.00  0.00     0.000 C
ATOM      5  C5  NGY C   1      35.967  39.393   1.8090  0.00  0.00     0.000 C
ATOM      6  O5  NGY C   1      36.724  39.419   3.0460  0.00  0.00     0.000 O
ATOM      7   O  NGY C   1      34.913  42.993   1.8840  0.00  0.00     0.000 O
ATOM      9  HD  NGY C   1      35.371  43.728   1.9030  0.00  0.00     0.000 HD
ATOM      9   O  NGY C   1      35.197  40.833   0.0280  0.00  0.00     0.000 O
ATOM     11  HD  NGY C   1      35.655  41.568   0.0470  0.00  0.00     0.000 HD
ENDROOT
BRANCH 2 13
ATOM     11   N  NGY C   1      36.171  42.950   4.0950  0.00  0.00     0.000 N
ATOM     13  HD  NGY C   1      35.571  43.021   4.7150  0.00  0.00     0.000 HD
ATOM     13   C  NGY C   1      35.489  43.523   5.0860  0.00  0.00     0.000 C
ATOM     14   O  NGY C   1      34.468  43.004   5.5390  0.00  0.00     0.000 OA
ATOM     15   C  NGY C   1      36.042  44.805   5.6300  0.00  0.00     0.000 C
ENDBRANCH 2 13
BRANCH 5 16
ATOM     16   C  NGY C   1      36.697  38.449   0.9080  0.00  0.00     0.000 C
ATOM     17   O  NGY C   1      38.754  35.655   2.1020  0.00  0.00     0.000 OA
ATOM     18   O  NGY C   1      37.561  37.631   1.7020  0.00  0.00     0.000 O
ATOM     19   S  NGY C   1      38.062  36.308   1.0190  0.00  0.00     0.000 S
ATOM     20   O  NGY C   1      38.950  36.690  -0.0470  0.00  0.00     0.000 OA
ATOM     21   O  NGY C   1      36.849  35.651   0.5580  0.00  0.00     0.000 OA
ENDBRANCH 5 16
BRANCH 1 22
ATOM     22  O4  BDP C   2      34.949  39.649   4.4870  0.00  0.00     0.000 O
BRANCH 22 26
ATOM     23  C1  BDP C   2      33.251  37.752   7.7250  0.00  0.00     0.000 C
ATOM     24  C2  BDP C   2      34.672  38.226   7.9210  0.00  0.00     0.000 C
ATOM     25  C3  BDP C   2      35.034  39.201   6.8310  0.00  0.00     0.000 C
ATOM     26  C4  BDP C   2      34.757  38.590   5.4620  0.00  0.00     0.000 C
ATOM     27  C5  BDP C   2      33.358  37.989   5.4380  0.00  0.00     0.000 C
ATOM     28  O5  BDP C   2      33.154  37.002   6.4810  0.00  0.00     0.000 O
ATOM     29   O  BDP C   2      34.832  38.985   9.1190  0.00  0.00     0.000 O
ATOM     31  HD  BDP C   2      35.390  39.646   9.0870  0.00  0.00     0.000 HD
ATOM     31   O  BDP C   2      36.422  39.479   6.9710  0.00  0.00     0.000 O
ATOM     33  HD  BDP C   2      36.981  40.140   6.9390  0.00  0.00     0.000 HD
BRANCH 27 33
ATOM     33   C  BDP C   2      33.056  37.280   4.1390  0.00  0.00     0.000 C
ATOM     34   O  BDP C   2      33.860  37.284   3.1760  0.00  0.00     0.000 OA
ATOM     35   O  BDP C   2      31.979  36.720   4.0200  0.00  0.00     0.000 OA
ENDBRANCH 27 33
BRANCH 23 36
ATOM     36  O4  SGN C   3      32.760  36.969   8.7140  0.00  0.00     0.000 O
BRANCH 36 40
ATOM     37  C1  SGN C   3      29.499  36.253  11.2200  0.00  0.00     0.000 C
ATOM     38  C2  SGN C   3      29.463  35.643   9.8090  0.00  0.00     0.000 C
ATOM     39  C3  SGN C   3      30.859  35.617   9.2050  0.00  0.00     0.000 C
ATOM     40  C4  SGN C   3      31.420  37.023   9.2120  0.00  0.00     0.000 C
ATOM     41  C5  SGN C   3      31.396  37.550  10.6290  0.00  0.00     0.000 C
ATOM     42  O5  SGN C   3      30.047  37.558  11.1210  0.00  0.00     0.000 O
ATOM     43   O  SGN C   3      30.787  35.104   7.8800  0.00  0.00     0.000 O
ATOM     45  HD  SGN C   3      31.466  35.637   7.9540  0.00  0.00     0.000 HD
BRANCH 38 47
ATOM     45   N  SGN C   3      28.367  35.197  10.6880  0.00  0.00     0.000 N
ATOM     47  HD  SGN C   3      29.023  35.744  10.5450  0.00  0.00     0.000 HD
ATOM     47   S  SGN C   3      27.359  34.222   9.9390  0.00  0.00     0.000 S
ATOM     48   O  SGN C   3      26.657  34.898   8.9060  0.00  0.00     0.000 OA
ATOM     49   O  SGN C   3      28.111  33.072   9.5560  0.00  0.00     0.000 OA
ATOM     50   O  SGN C   3      26.402  33.912  10.9990  0.00  0.00     0.000 OA
ENDBRANCH 38 47
BRANCH 41 51
ATOM     51   C  SGN C   3      31.936  38.947  10.7750  0.00  0.00     0.000 C
ATOM     52   O  SGN C   3      30.131  42.141  10.1290  0.00  0.00     0.000 OA
ATOM     53   O  SGN C   3      31.811  41.643  11.7600  0.00  0.00     0.000 OA
ATOM     54   O  SGN C   3      32.331  41.574   9.4170  0.00  0.00     0.000 OA
ATOM     55   O  SGN C   3      30.908  39.866  10.4790  0.00  0.00     0.000 O
ATOM     56   S  SGN C   3      31.337  41.454  10.4420  0.00  0.00     0.000 S
ENDBRANCH 41 51
BRANCH 37 57
ATOM     57  O4  IDS C   4      30.230  35.553  12.1210  0.00  0.00     0.000 O
BRANCH 57 61
ATOM     58  C1  IDS C   4      30.490  33.579  15.3620  0.00  0.00     0.000 C
ATOM     59  C2  IDS C   4      29.281  33.391  14.5020  0.00  0.00     0.000 C
ATOM     60  C3  IDS C   4      28.778  34.702  13.8940  0.00  0.00     0.000 C
ATOM     61  C4  IDS C   4      29.839  35.720  13.4970  0.00  0.00     0.000 C
ATOM     62  C5  IDS C   4      31.054  35.629  14.4280  0.00  0.00     0.000 C
ATOM     63  O5  IDS C   4      31.470  34.286  14.6210  0.00  0.00     0.000 O
ATOM     64   O  IDS C   4      27.954  35.282  14.8880  0.00  0.00     0.000 O
ATOM     66  HD  IDS C   4      28.312  36.010  15.1920  0.00  0.00     0.000 HD
BRANCH 59 66
ATOM     66   O  IDS C   4      29.555  32.484  13.3710  0.00  0.00     0.000 O
ATOM     67   S  IDS C   4      28.621  31.201  13.2470  0.00  0.00     0.000 S
ATOM     68   O  IDS C   4      27.320  31.767  12.9820  0.00  0.00     0.000 OA
ATOM     69   O  IDS C   4      29.187  30.432  12.1560  0.00  0.00     0.000 OA
ATOM     70   O  IDS C   4      28.658  30.516  14.5300  0.00  0.00     0.000 OA
ENDBRANCH 59 66
BRANCH 62 71
ATOM     71   C  IDS C   4      32.269  36.361  13.8910  0.00  0.00     0.000 C
ATOM     72   O  IDS C   4      32.330  37.573  13.9560  0.00  0.00     0.000 OA
ATOM     73   O  IDS C   4      33.144  35.701  13.2950  0.00  0.00     0.000 OA
ENDBRANCH 62 71
BRANCH 58 74
ATOM     74  O4  SGN C   5      30.229  33.952  16.6480  0.00  0.00     0.000 O
BRANCH 74 78
ATOM     75  C1  SGN C   5      31.413  33.649  20.6410  0.00  0.00     0.000 C
ATOM     76  C2  SGN C   5      32.056  34.790  19.8310  0.00  0.00     0.000 C
ATOM     77  C3  SGN C   5      31.303  35.010  18.5120  0.00  0.00     0.000 C
ATOM     78  C4  SGN C   5      31.064  33.698  17.7770  0.00  0.00     0.000 C
ATOM     79  C5  SGN C   5      30.403  32.702  18.7180  0.00  0.00     0.000 C
ATOM     80  O5  SGN C   5      31.267  32.469  19.8620  0.00  0.00     0.000 O
ATOM     81   O  SGN C   5      32.048  35.910  17.6990  0.00  0.00     0.000 O
ATOM     83  HD  SGN C   5      32.482  36.577  18.0410  0.00  0.00     0.000 HD
BRANCH 76 85
ATOM     83   N  SGN C   5      33.140  35.360  20.6410  0.00  0.00     0.000 N
ATOM     85  HD  SGN C   5      33.453  35.698  21.3740  0.00  0.00     0.000 HD
ATOM     85   S  SGN C   5      33.104  36.597  21.6710  0.00  0.00     0.000 S
ATOM     86   O  SGN C   5      34.379  36.778  22.2750  0.00  0.00     0.000 OA
ATOM     87   O  SGN C   5      32.556  37.706  20.9760  0.00  0.00     0.000 OA
ATOM     88   O  SGN C   5      32.128  35.962  22.6590  0.00  0.00     0.000 OA
ENDBRANCH 76 85
BRANCH 79 89
ATOM     89   C  SGN C   5      30.102  31.366  18.0690  0.00  0.00     0.000 C
ATOM     90   O  SGN C   5      31.340  30.678  17.7670  0.00  0.00     0.000 O
ATOM     91   S  SGN C   5      31.305  29.074  17.8230  0.00  0.00     0.000 S
ATOM     92   O  SGN C   5      30.758  28.723  19.1070  0.00  0.00     0.000 OA
ATOM     93   O  SGN C   5      30.476  28.631  16.7320  0.00  0.00     0.000 OA
ATOM     94   O  SGN C   5      32.687  28.708  17.6700  0.00  0.00     0.000 OA
ENDBRANCH 79 89
BRANCH 75 95
ATOM     95  O4  BDP C   6      30.181  34.106  21.0160  0.00  0.00     0.000 O
BRANCH 95 99
ATOM     96  C1  BDP C   6      28.663  33.133  24.9140  0.00  0.00     0.000 C
ATOM     97  C2  BDP C   6      29.864  32.389  24.4010  0.00  0.00     0.000 C
ATOM     98  C3  BDP C   6      30.554  33.052  23.1990  0.00  0.00     0.000 C
ATOM     99  C4  BDP C   6      29.546  33.435  22.1250  0.00  0.00     0.000 C
ATOM    100  C5  BDP C   6      28.398  34.218  22.8050  0.00  0.00     0.000 C
ATOM    101  O5  BDP C   6      27.866  33.280  23.7530  0.00  0.00     0.000 O
BRANCH 100 102
ATOM    102   C  BDP C   6      27.295  34.584  21.8440  0.00  0.00     0.000 C
ATOM    103   O  BDP C   6      27.372  34.353  20.6290  0.00  0.00     0.000 OA
ATOM    104   O  BDP C   6      26.291  35.121  22.3250  0.00  0.00     0.000 OA
ENDBRANCH 100 102
ENDBRANCH 95 99
ENDBRANCH 75 95
ENDBRANCH 74 78
ENDBRANCH 58 74
ENDBRANCH 57 61
ENDBRANCH 37 57
ENDBRANCH 36 40
ENDBRANCH 23 36
ENDBRANCH 22 26
ENDBRANCH 1 22
TORSDOF 20
ENDMDL
MODEL 32
REMARK VINA RESULT:      -4.2     11.232     19.742
ROOT
ATOM      1  C1  NGY C   1      17.058  32.573  22.9620  0.00  0.00     0.000 C
ATOM      2  C2  NGY C   1      17.908  33.013  21.7780  0.00  0.00     0.000 C
ATOM      3  C3  NGY C   1      17.689  32.077  20.5940  0.00  0.00     0.000 C
ATOM      4  C4  NGY C   1      17.957  30.657  21.0540  0.00  0.00     0.000 C
ATOM      5  C5  NGY C   1      16.988  30.316  22.1820  0.00  0.00     0.000 C
ATOM      6  O5  NGY C   1      17.249  31.214  23.2920  0.00  0.00     0.000 O
ATOM      7   O  NGY C   1      18.544  32.464  19.5280  0.00  0.00     0.000 O
ATOM      9  HD  NGY C   1      19.346  32.778  19.4370  0.00  0.00     0.000 HD
ATOM      9   O  NGY C   1      17.802  29.738  19.9820  0.00  0.00     0.000 O
ATOM     11  HD  NGY C   1      18.604  30.052  19.8910  0.00  0.00     0.000 HD
ENDROOT
BRANCH 2 13
ATOM     11   N  NGY C   1      18.885  34.044  21.5170  0.00  0.00     0.000 N
ATOM     13  HD  NGY C   1      18.346  34.705  21.3680  0.00  0.00     0.000 HD
ATOM     13   C  NGY C   1      18.522  35.292  21.2230  0.00  0.00     0.000 C
ATOM     14   O  NGY C   1      17.341  35.581  21.0220  0.00  0.00     0.000 OA
ATOM     15   C  NGY C   1      19.614  36.317  21.1780  0.00  0.00     0.000 C
ENDBRANCH 2 13
BRANCH 5 16
ATOM     16   C  NGY C   1      17.122  28.935  22.7400  0.00  0.00     0.000 C
ATOM     17   O  NGY C   1      20.156  27.668  24.3660  0.00  0.00     0.000 OA
ATOM     18   O  NGY C   1      18.490  28.715  23.0970  0.00  0.00     0.000 O
ATOM     19   S  NGY C   1      18.749  27.526  24.0910  0.00  0.00     0.000 S
ATOM     20   O  NGY C   1      18.449  26.308  23.3850  0.00  0.00     0.000 OA
ATOM     21   O  NGY C   1      17.858  27.783  25.2100  0.00  0.00     0.000 OA
ENDBRANCH 5 16
BRANCH 1 22
ATOM     22  O4  BDP C   2      15.766  32.868  22.7030  0.00  0.00     0.000 O
BRANCH 22 26
ATOM     23  C1  BDP C   2      12.056  33.721  24.2750  0.00  0.00     0.000 C
ATOM     24  C2  BDP C   2      13.225  33.954  25.2040  0.00  0.00     0.000 C
ATOM     25  C3  BDP C   2      14.506  33.962  24.4120  0.00  0.00     0.000 C
ATOM     26  C4  BDP C   2      14.613  32.695  23.5690  0.00  0.00     0.000 C
ATOM     27  C5  BDP C   2      13.313  32.468  22.8100  0.00  0.00     0.000 C
ATOM     28  O5  BDP C   2      12.158  32.395  23.6850  0.00  0.00     0.000 O
ATOM     29   O  BDP C   2      13.193  35.249  25.8050  0.00  0.00     0.000 O
ATOM     31  HD  BDP C   2      13.957  35.636  25.9320  0.00  0.00     0.000 HD
ATOM     31   O  BDP C   2      15.572  34.015  25.3520  0.00  0.00     0.000 O
ATOM     33  HD  BDP C   2      16.336  34.402  25.4790  0.00  0.00     0.000 HD
BRANCH 27 33
ATOM     33   C  BDP C   2      13.318  31.175  22.0290  0.00  0.00     0.000 C
ATOM     34   O  BDP C   2      13.642  31.130  20.8190  0.00  0.00     0.000 OA
ATOM     35   O  BDP C   2      12.962  30.154  22.5950  0.00  0.00     0.000 OA
ENDBRANCH 27 33
BRANCH 23 36
ATOM     36  O4  SGN C   3      10.833  33.822  24.8460  0.00  0.00     0.000 O
BRANCH 36 40
ATOM     37  C1  SGN C   3       6.923  35.212  24.3920  0.00  0.00     0.000 C
ATOM     38  C2  SGN C   3       7.309  33.915  23.6630  0.00  0.00     0.000 C
ATOM     39  C3  SGN C   3       8.576  33.324  24.2630  0.00  0.00     0.000 C
ATOM     40  C4  SGN C   3       9.674  34.365  24.2090  0.00  0.00     0.000 C
ATOM     41  C5  SGN C   3       9.201  35.610  24.9270  0.00  0.00     0.000 C
ATOM     42  O5  SGN C   3       8.015  36.114  24.2940  0.00  0.00     0.000 O
ATOM     43   O  SGN C   3       8.942  32.160  23.5330  0.00  0.00     0.000 O
ATOM     45  HD  SGN C   3       9.646  32.521  23.8840  0.00  0.00     0.000 HD
BRANCH 38 47
ATOM     45   N  SGN C   3       6.231  34.261  22.7200  0.00  0.00     0.000 N
ATOM     47  HD  SGN C   3       7.041  34.392  22.9960  0.00  0.00     0.000 HD
ATOM     47   S  SGN C   3       5.061  33.186  22.7290  0.00  0.00     0.000 S
ATOM     48   O  SGN C   3       5.504  31.933  22.2290  0.00  0.00     0.000 OA
ATOM     49   O  SGN C   3       4.511  33.191  24.0460  0.00  0.00     0.000 OA
ATOM     50   O  SGN C   3       4.129  33.751  21.7550  0.00  0.00     0.000 OA
ENDBRANCH 38 47
BRANCH 41 51
ATOM     51   C  SGN C   3      10.208  36.727  24.9500  0.00  0.00     0.000 C
ATOM     52   O  SGN C   3      12.078  38.136  22.0520  0.00  0.00     0.000 OA
ATOM     53   O  SGN C   3      11.265  39.231  24.0190  0.00  0.00     0.000 OA
ATOM     54   O  SGN C   3      12.971  37.549  24.1810  0.00  0.00     0.000 OA
ATOM     55   O  SGN C   3      10.638  36.980  23.6310  0.00  0.00     0.000 O
ATOM     56   S  SGN C   3      11.853  38.076  23.4560  0.00  0.00     0.000 S
ENDBRANCH 41 51
BRANCH 37 57
ATOM     57  O4  IDS C   4       6.619  35.055  25.7040  0.00  0.00     0.000 O
BRANCH 57 61
ATOM     58  C1  IDS C   4       4.308  35.754  28.6440  0.00  0.00     0.000 C
ATOM     59  C2  IDS C   4       3.707  35.564  27.2870  0.00  0.00     0.000 C
ATOM     60  C3  IDS C   4       4.527  36.228  26.1780  0.00  0.00     0.000 C
ATOM     61  C4  IDS C   4       6.040  36.208  26.3450  0.00  0.00     0.000 C
ATOM     62  C5  IDS C   4       6.424  36.260  27.8290  0.00  0.00     0.000 C
ATOM     63  O5  IDS C   4       5.664  35.343  28.6020  0.00  0.00     0.000 O
ATOM     64   O  IDS C   4       4.099  37.576  26.1550  0.00  0.00     0.000 O
ATOM     66  HD  IDS C   4       4.738  38.102  26.4100  0.00  0.00     0.000 HD
BRANCH 59 66
ATOM     66   O  IDS C   4       3.607  34.135  26.9350  0.00  0.00     0.000 O
ATOM     67   S  IDS C   4       2.137  33.542  26.7840  0.00  0.00     0.000 S
ATOM     68   O  IDS C   4       1.609  34.259  25.6480  0.00  0.00     0.000 OA
ATOM     69   O  IDS C   4       2.328  32.120  26.5740  0.00  0.00     0.000 OA
ATOM     70   O  IDS C   4       1.416  33.864  28.0050  0.00  0.00     0.000 OA
ENDBRANCH 59 66
BRANCH 62 71
ATOM     71   C  IDS C   4       7.877  35.902  28.0800  0.00  0.00     0.000 C
ATOM     72   O  IDS C   4       8.206  34.739  28.2030  0.00  0.00     0.000 OA
ATOM     73   O  IDS C   4       8.694  36.828  28.2600  0.00  0.00     0.000 OA
ENDBRANCH 62 71
BRANCH 58 74
ATOM     74  O4  SGN C   5       3.987  36.930  29.2550  0.00  0.00     0.000 O
BRANCH 74 78
ATOM     75  C1  SGN C   5       3.822  39.036  32.8580  0.00  0.00     0.000 C
ATOM     76  C2  SGN C   5       5.186  39.026  32.1430  0.00  0.00     0.000 C
ATOM     77  C3  SGN C   5       5.038  38.529  30.6990  0.00  0.00     0.000 C
ATOM     78  C4  SGN C   5       4.219  37.248  30.6270  0.00  0.00     0.000 C
ATOM     79  C5  SGN C   5       2.900  37.448  31.3600  0.00  0.00     0.000 C
ATOM     80  O5  SGN C   5       3.163  37.781  32.7490  0.00  0.00     0.000 O
ATOM     81   O  SGN C   5       6.334  38.325  30.1460  0.00  0.00     0.000 O
ATOM     83  HD  SGN C   5       6.996  38.851  30.3330  0.00  0.00     0.000 HD
BRANCH 76 85
ATOM     83   N  SGN C   5       6.138  39.599  33.1040  0.00  0.00     0.000 N
ATOM     85  HD  SGN C   5       6.406  40.229  33.6330  0.00  0.00     0.000 HD
ATOM     85   S  SGN C   5       6.681  41.110  33.2260  0.00  0.00     0.000 S
ATOM     86   O  SGN C   5       7.561  41.234  34.3360  0.00  0.00     0.000 OA
ATOM     87   O  SGN C   5       7.193  41.476  31.9530  0.00  0.00     0.000 OA
ATOM     88   O  SGN C   5       5.330  41.748  33.5370  0.00  0.00     0.000 OA
ENDBRANCH 76 85
BRANCH 79 89
ATOM     89   C  SGN C   5       1.999  36.230  31.3240  0.00  0.00     0.000 C
ATOM     90   O  SGN C   5       2.600  35.154  32.0840  0.00  0.00     0.000 O
ATOM     91   S  SGN C   5       1.595  34.138  32.8150  0.00  0.00     0.000 S
ATOM     92   O  SGN C   5       0.693  34.948  33.5920  0.00  0.00     0.000 OA
ATOM     93   O  SGN C   5       0.918  33.396  31.7820  0.00  0.00     0.000 OA
ATOM     94   O  SGN C   5       2.470  33.326  33.6160  0.00  0.00     0.000 OA
ENDBRANCH 79 89
BRANCH 75 95
ATOM     95  O4  BDP C   6       3.081  39.999  32.2330  0.00  0.00     0.000 O
BRANCH 95 99
ATOM     96  C1  BDP C   6       0.029  42.246  34.2530  0.00  0.00     0.000 C
ATOM     97  C2  BDP C   6       0.759  41.175  35.0130  0.00  0.00     0.000 C
ATOM     98  C3  BDP C   6       2.062  40.703  34.3500  0.00  0.00     0.000 C
ATOM     99  C4  BDP C   6       1.850  40.393  32.8750  0.00  0.00     0.000 C
ATOM    100  C5  BDP C   6       1.123  41.598  32.2330  0.00  0.00     0.000 C
ATOM    101  O5  BDP C   6      -0.111  41.676  32.9640  0.00  0.00     0.000 O
BRANCH 100 102
ATOM    102   C  BDP C   6       0.789  41.369  30.7810  0.00  0.00     0.000 C
ATOM    103   O  BDP C   6      -0.183  40.687  30.4250  0.00  0.00     0.000 OA
ATOM    104   O  BDP C   6       1.526  41.907  29.9460  0.00  0.00     0.000 OA
ENDBRANCH 100 102
ENDBRANCH 95 99
ENDBRANCH 75 95
ENDBRANCH 74 78
ENDBRANCH 58 74
ENDBRANCH 57 61
ENDBRANCH 37 57
ENDBRANCH 36 40
ENDBRANCH 23 36
ENDBRANCH 22 26
ENDBRANCH 1 22
TORSDOF 20
ENDMDL
MODEL 33
REMARK VINA RESULT:      -4.1     35.527     39.554
ROOT
ATOM      1  C1  NGY C   1      18.104  25.767  66.8900  0.00  0.00     0.000 C
ATOM      2  C2  NGY C   1      19.283  26.294  67.6940  0.00  0.00     0.000 C
ATOM      3  C3  NGY C   1      18.917  26.385  69.1720  0.00  0.00     0.000 C
ATOM      4  C4  NGY C   1      17.658  27.221  69.3000  0.00  0.00     0.000 C
ATOM      5  C5  NGY C   1      16.537  26.541  68.5180  0.00  0.00     0.000 C
ATOM      6  O5  NGY C   1      16.919  26.499  67.1190  0.00  0.00     0.000 O
ATOM      7   O  NGY C   1      20.006  26.947  69.8900  0.00  0.00     0.000 O
ATOM      9  HD  NGY C   1      20.611  27.552  69.7580  0.00  0.00     0.000 HD
ATOM      9   O  NGY C   1      17.283  27.370  70.6610  0.00  0.00     0.000 O
ATOM     11  HD  NGY C   1      17.888  27.976  70.5300  0.00  0.00     0.000 HD
ENDROOT
BRANCH 2 13
ATOM     11   N  NGY C   1      20.505  26.603  66.9890  0.00  0.00     0.000 N
ATOM     13  HD  NGY C   1      21.020  26.005  67.3450  0.00  0.00     0.000 HD
ATOM     13   C  NGY C   1      21.629  25.923  67.2100  0.00  0.00     0.000 C
ATOM     14   O  NGY C   1      21.707  25.101  68.1240  0.00  0.00     0.000 OA
ATOM     15   C  NGY C   1      22.771  26.190  66.2770  0.00  0.00     0.000 C
ENDBRANCH 2 13
BRANCH 5 16
ATOM     16   C  NGY C   1      15.219  27.245  68.5560  0.00  0.00     0.000 C
ATOM     17   O  NGY C   1      12.451  26.298  70.7710  0.00  0.00     0.000 OA
ATOM     18   O  NGY C   1      14.315  26.486  69.3640  0.00  0.00     0.000 O
ATOM     19   S  NGY C   1      13.053  27.263  69.8860  0.00  0.00     0.000 S
ATOM     20   O  NGY C   1      12.227  27.549  68.7430  0.00  0.00     0.000 OA
ATOM     21   O  NGY C   1      13.594  28.453  70.5240  0.00  0.00     0.000 OA
ENDBRANCH 5 16
BRANCH 1 22
ATOM     22  O4  BDP C   2      17.958  24.449  67.1460  0.00  0.00     0.000 O
BRANCH 22 26
ATOM     23  C1  BDP C   2      16.971  20.631  65.9570  0.00  0.00     0.000 C
ATOM     24  C2  BDP C   2      18.001  21.332  65.1030  0.00  0.00     0.000 C
ATOM     25  C3  BDP C   2      18.531  22.536  65.8360  0.00  0.00     0.000 C
ATOM     26  C4  BDP C   2      17.380  23.426  66.2930  0.00  0.00     0.000 C
ATOM     27  C5  BDP C   2      16.320  22.583  66.9900  0.00  0.00     0.000 C
ATOM     28  O5  BDP C   2      15.824  21.504  66.1550  0.00  0.00     0.000 O
ATOM     29   O  BDP C   2      19.163  20.532  64.8840  0.00  0.00     0.000 O
ATOM     31  HD  BDP C   2      19.920  20.951  64.8520  0.00  0.00     0.000 HD
ATOM     31   O  BDP C   2      19.362  23.243  64.9230  0.00  0.00     0.000 O
ATOM     33  HD  BDP C   2      20.120  23.661  64.8900  0.00  0.00     0.000 HD
BRANCH 27 33
ATOM     33   C  BDP C   2      15.105  23.390  67.3810  0.00  0.00     0.000 C
ATOM     34   O  BDP C   2      14.576  23.290  68.5140  0.00  0.00     0.000 OA
ATOM     35   O  BDP C   2      14.610  24.134  66.5510  0.00  0.00     0.000 OA
ENDBRANCH 27 33
BRANCH 23 36
ATOM     36  O4  SGN C   3      16.512  19.457  65.4650  0.00  0.00     0.000 O
BRANCH 36 40
ATOM     37  C1  SGN C   3      15.499  15.511  66.3770  0.00  0.00     0.000 C
ATOM     38  C2  SGN C   3      14.452  16.601  66.6600  0.00  0.00     0.000 C
ATOM     39  C3  SGN C   3      14.784  17.871  65.8900  0.00  0.00     0.000 C
ATOM     40  C4  SGN C   3      16.187  18.309  66.2540  0.00  0.00     0.000 C
ATOM     41  C5  SGN C   3      17.143  17.173  65.9660  0.00  0.00     0.000 C
ATOM     42  O5  SGN C   3      16.773  16.020  66.7380  0.00  0.00     0.000 O
ATOM     43   O  SGN C   3      13.835  18.878  66.2170  0.00  0.00     0.000 O
ATOM     45  HD  SGN C   3      14.586  19.244  65.9880  0.00  0.00     0.000 HD
BRANCH 38 47
ATOM     45   N  SGN C   3      13.358  15.747  66.1650  0.00  0.00     0.000 N
ATOM     47  HD  SGN C   3      14.110  16.146  66.0100  0.00  0.00     0.000 HD
ATOM     47   S  SGN C   3      12.450  15.195  67.3460  0.00  0.00     0.000 S
ATOM     48   O  SGN C   3      13.172  14.300  68.1800  0.00  0.00     0.000 OA
ATOM     49   O  SGN C   3      11.867  16.332  67.9800  0.00  0.00     0.000 OA
ATOM     50   O  SGN C   3      11.452  14.416  66.6150  0.00  0.00     0.000 OA
ENDBRANCH 38 47
BRANCH 41 51
ATOM     51   C  SGN C   3      18.581  17.484  66.2810  0.00  0.00     0.000 C
ATOM     52   O  SGN C   3      21.348  15.049  66.8250  0.00  0.00     0.000 OA
ATOM     53   O  SGN C   3      21.407  17.227  65.8320  0.00  0.00     0.000 OA
ATOM     54   O  SGN C   3      20.845  16.962  68.1520  0.00  0.00     0.000 OA
ATOM     55   O  SGN C   3      19.302  16.274  66.3590  0.00  0.00     0.000 O
ATOM     56   S  SGN C   3      20.872  16.390  66.8380  0.00  0.00     0.000 S
ENDBRANCH 41 51
BRANCH 37 57
ATOM     57  O4  IDS C   4      15.556  15.103  65.0850  0.00  0.00     0.000 O
BRANCH 57 61
ATOM     58  C1  IDS C   4      16.034  11.817  63.2290  0.00  0.00     0.000 C
ATOM     59  C2  IDS C   4      15.751  11.778  64.6980  0.00  0.00     0.000 C
ATOM     60  C3  IDS C   4      16.486  12.875  65.4710  0.00  0.00     0.000 C
ATOM     61  C4  IDS C   4      16.645  14.215  64.7670  0.00  0.00     0.000 C
ATOM     62  C5  IDS C   4      16.768  14.021  63.2510  0.00  0.00     0.000 C
ATOM     63  O5  IDS C   4      15.783  13.128  62.7530  0.00  0.00     0.000 O
ATOM     64   O  IDS C   4      17.775  12.351  65.7280  0.00  0.00     0.000 O
ATOM     66  HD  IDS C   4      18.376  12.794  65.2900  0.00  0.00     0.000 HD
BRANCH 59 66
ATOM     66   O  IDS C   4      14.314  11.960  64.9780  0.00  0.00     0.000 O
ATOM     67   S  IDS C   4      13.683  11.018  66.0950  0.00  0.00     0.000 S
ATOM     68   O  IDS C   4      14.367  11.430  67.2970  0.00  0.00     0.000 OA
ATOM     69   O  IDS C   4      12.263  11.308  66.0690  0.00  0.00     0.000 OA
ATOM     70   O  IDS C   4      14.009   9.646  65.7350  0.00  0.00     0.000 OA
ENDBRANCH 59 66
BRANCH 62 71
ATOM     71   C  IDS C   4      16.586  15.309  62.4700  0.00  0.00     0.000 C
ATOM     72   O  IDS C   4      17.510  16.090  62.3580  0.00  0.00     0.000 OA
ATOM     73   O  IDS C   4      15.448  15.588  62.0420  0.00  0.00     0.000 OA
ENDBRANCH 62 71
BRANCH 58 74
ATOM     74  O4  SGN C   5      17.175  11.176  62.8460  0.00  0.00     0.000 O
BRANCH 74 78
ATOM     75  C1  SGN C   5      19.414   9.888  59.5650  0.00  0.00     0.000 C
ATOM     76  C2  SGN C   5      19.899  11.181  60.2480  0.00  0.00     0.000 C
ATOM     77  C3  SGN C   5      19.224  11.358  61.6150  0.00  0.00     0.000 C
ATOM     78  C4  SGN C   5      17.717  11.154  61.5260  0.00  0.00     0.000 C
ATOM     79  C5  SGN C   5      17.424   9.823  60.8500  0.00  0.00     0.000 C
ATOM     80  O5  SGN C   5      17.995   9.822  59.5140  0.00  0.00     0.000 O
ATOM     81   O  SGN C   5      19.524  12.658  62.1130  0.00  0.00     0.000 O
ATOM     83  HD  SGN C   5      20.298  13.025  61.9870  0.00  0.00     0.000 HD
BRANCH 76 85
ATOM     83   N  SGN C   5      20.927  11.574  59.2760  0.00  0.00     0.000 N
ATOM     85  HD  SGN C   5      21.691  11.469  58.8840  0.00  0.00     0.000 HD
ATOM     85   S  SGN C   5      22.530  11.589  59.4320  0.00  0.00     0.000 S
ATOM     86   O  SGN C   5      23.144  12.002  58.2180  0.00  0.00     0.000 OA
ATOM     87   O  SGN C   5      22.831  12.341  60.5970  0.00  0.00     0.000 OA
ATOM     88   O  SGN C   5      22.690  10.083  59.6310  0.00  0.00     0.000 OA
ENDBRANCH 76 85
BRANCH 79 89
ATOM     89   C  SGN C   5      15.945   9.516  60.7360  0.00  0.00     0.000 C
ATOM     90   O  SGN C   5      15.700   8.140  61.1150  0.00  0.00     0.000 O
ATOM     91   S  SGN C   5      14.282   7.822  61.7980  0.00  0.00     0.000 S
ATOM     92   O  SGN C   5      14.142   8.747  62.8930  0.00  0.00     0.000 OA
ATOM     93   O  SGN C   5      13.274   8.009  60.7870  0.00  0.00     0.000 OA
ATOM     94   O  SGN C   5      14.418   6.454  62.2190  0.00  0.00     0.000 OA
ENDBRANCH 79 89
BRANCH 75 95
ATOM     95  O4  BDP C   6      19.895   8.861  60.3270  0.00  0.00     0.000 O
BRANCH 95 99
ATOM     96  C1  BDP C   6      20.844   4.826  59.2030  0.00  0.00     0.000 C
ATOM     97  C2  BDP C   6      20.964   5.910  58.1690  0.00  0.00     0.000 C
ATOM     98  C3  BDP C   6      20.981   7.335  58.7440  0.00  0.00     0.000 C
ATOM     99  C4  BDP C   6      19.852   7.541  59.7430  0.00  0.00     0.000 C
ATOM    100  C5  BDP C   6      19.886   6.369  60.7520  0.00  0.00     0.000 C
ATOM    101  O5  BDP C   6      19.689   5.210  59.9270  0.00  0.00     0.000 O
BRANCH 100 102
ATOM    102   C  BDP C   6      18.757   6.427  61.7490  0.00  0.00     0.000 C
ATOM    103   O  BDP C   6      17.695   5.810  61.5830  0.00  0.00     0.000 OA
ATOM    104   O  BDP C   6      18.939   7.116  62.7600  0.00  0.00     0.000 OA
ENDBRANCH 100 102
ENDBRANCH 95 99
ENDBRANCH 75 95
ENDBRANCH 74 78
ENDBRANCH 58 74
ENDBRANCH 57 61
ENDBRANCH 37 57
ENDBRANCH 36 40
ENDBRANCH 23 36
ENDBRANCH 22 26
ENDBRANCH 1 22
TORSDOF 20
ENDMDL
MODEL 34
REMARK VINA RESULT:      -3.8     34.686     37.767
ROOT
ATOM      1  C1  NGY C   1      30.933  23.173  64.1310  0.00  0.00     0.000 C
ATOM      2  C2  NGY C   1      31.501  23.409  65.5230  0.00  0.00     0.000 C
ATOM      3  C3  NGY C   1      30.504  24.187  66.3760  0.00  0.00     0.000 C
ATOM      4  C4  NGY C   1      30.133  25.458  65.6360  0.00  0.00     0.000 C
ATOM      5  C5  NGY C   1      29.503  25.080  64.2990  0.00  0.00     0.000 C
ATOM      6  O5  NGY C   1      30.493  24.365  63.5150  0.00  0.00     0.000 O
ATOM      7   O  NGY C   1      31.084  24.457  67.6440  0.00  0.00     0.000 O
ATOM      9  HD  NGY C   1      31.868  24.653  67.9570  0.00  0.00     0.000 HD
ATOM      9   O  NGY C   1      29.229  26.244  66.3970  0.00  0.00     0.000 O
ATOM     11  HD  NGY C   1      30.012  26.441  66.7110  0.00  0.00     0.000 HD
ENDROOT
BRANCH 2 13
ATOM     11   N  NGY C   1      31.981  22.096  65.8820  0.00  0.00     0.000 N
ATOM     13  HD  NGY C   1      32.614  22.328  66.4260  0.00  0.00     0.000 HD
ATOM     13   C  NGY C   1      32.995  21.931  66.7300  0.00  0.00     0.000 C
ATOM     14   O  NGY C   1      33.654  22.892  67.1300  0.00  0.00     0.000 OA
ATOM     15   C  NGY C   1      33.268  20.530  67.1880  0.00  0.00     0.000 C
ENDBRANCH 2 13
BRANCH 5 16
ATOM     16   C  NGY C   1      29.072  26.234  63.4500  0.00  0.00     0.000 C
ATOM     17   O  NGY C   1      31.383  28.685  61.9980  0.00  0.00     0.000 OA
ATOM     18   O  NGY C   1      30.195  27.095  63.2410  0.00  0.00     0.000 O
ATOM     19   S  NGY C   1      30.069  28.096  62.0370  0.00  0.00     0.000 S
ATOM     20   O  NGY C   1      29.050  29.051  62.3830  0.00  0.00     0.000 OA
ATOM     21   O  NGY C   1      29.719  27.259  60.9010  0.00  0.00     0.000 OA
ENDBRANCH 5 16
BRANCH 1 22
ATOM     22  O4  BDP C   2      29.960  22.241  64.2100  0.00  0.00     0.000 O
BRANCH 22 26
ATOM     23  C1  BDP C   2      27.803  19.119  62.6080  0.00  0.00     0.000 C
ATOM     24  C2  BDP C   2      29.293  18.894  62.7110  0.00  0.00     0.000 C
ATOM     25  C3  BDP C   2      29.898  19.925  63.6270  0.00  0.00     0.000 C
ATOM     26  C4  BDP C   2      29.502  21.328  63.1780  0.00  0.00     0.000 C
ATOM     27  C5  BDP C   2      28.000  21.389  62.9370  0.00  0.00     0.000 C
ATOM     28  O5  BDP C   2      27.546  20.404  61.9730  0.00  0.00     0.000 O
ATOM     29   O  BDP C   2      29.613  17.654  63.3430  0.00  0.00     0.000 O
ATOM     31  HD  BDP C   2      30.316  17.647  63.8490  0.00  0.00     0.000 HD
ATOM     31   O  BDP C   2      31.309  19.768  63.5520  0.00  0.00     0.000 O
ATOM     33  HD  BDP C   2      32.012  19.761  64.0590  0.00  0.00     0.000 HD
BRANCH 27 33
ATOM     33   C  BDP C   2      27.556  22.727  62.3940  0.00  0.00     0.000 C
ATOM     34   O  BDP C   2      28.102  23.255  61.3970  0.00  0.00     0.000 OA
ATOM     35   O  BDP C   2      26.660  23.319  62.9730  0.00  0.00     0.000 OA
ENDBRANCH 27 33
BRANCH 23 36
ATOM     36  O4  SGN C   3      27.121  18.177  61.9150  0.00  0.00     0.000 O
BRANCH 36 40
ATOM     37  C1  SGN C   3      23.667  15.839  61.7610  0.00  0.00     0.000 C
ATOM     38  C2  SGN C   3      23.544  17.320  61.3690  0.00  0.00     0.000 C
ATOM     39  C3  SGN C   3      24.915  17.903  61.0560  0.00  0.00     0.000 C
ATOM     40  C4  SGN C   3      25.818  17.695  62.2530  0.00  0.00     0.000 C
ATOM     41  C5  SGN C   3      25.861  16.219  62.5820  0.00  0.00     0.000 C
ATOM     42  O5  SGN C   3      24.537  15.749  62.8790  0.00  0.00     0.000 O
ATOM     43   O  SGN C   3      24.778  19.286  60.7550  0.00  0.00     0.000 O
ATOM     45  HD  SGN C   3      25.567  19.131  61.0780  0.00  0.00     0.000 HD
BRANCH 38 47
ATOM     45   N  SGN C   3      22.157  16.918  61.6620  0.00  0.00     0.000 N
ATOM     47  HD  SGN C   3      22.971  17.019  61.9400  0.00  0.00     0.000 HD
ATOM     47   S  SGN C   3      21.142  17.416  60.5450  0.00  0.00     0.000 S
ATOM     48   O  SGN C   3      21.045  18.832  60.5260  0.00  0.00     0.000 OA
ATOM     49   O  SGN C   3      21.534  16.784  59.3270  0.00  0.00     0.000 OA
ATOM     50   O  SGN C   3      19.872  16.888  61.0400  0.00  0.00     0.000 OA
ENDBRANCH 38 47
BRANCH 41 51
ATOM     51   C  SGN C   3      26.734  15.875  63.7570  0.00  0.00     0.000 C
ATOM     52   O  SGN C   3      28.036  12.513  64.6930  0.00  0.00     0.000 OA
ATOM     53   O  SGN C   3      29.051  14.665  64.9500  0.00  0.00     0.000 OA
ATOM     54   O  SGN C   3      27.043  14.116  66.1470  0.00  0.00     0.000 OA
ATOM     55   O  SGN C   3      27.037  14.499  63.7130  0.00  0.00     0.000 O
ATOM     56   S  SGN C   3      27.869  13.893  64.9970  0.00  0.00     0.000 S
ENDBRANCH 41 51
BRANCH 37 57
ATOM     57  O4  IDS C   4      24.148  15.032  60.7840  0.00  0.00     0.000 O
BRANCH 57 61
ATOM     58  C1  IDS C   4      23.016  11.701  59.3360  0.00  0.00     0.000 C
ATOM     59  C2  IDS C   4      22.118  12.406  60.3030  0.00  0.00     0.000 C
ATOM     60  C3  IDS C   4      22.885  13.051  61.4600  0.00  0.00     0.000 C
ATOM     61  C4  IDS C   4      24.251  13.638  61.1300  0.00  0.00     0.000 C
ATOM     62  C5  IDS C   4      24.926  12.843  60.0060  0.00  0.00     0.000 C
ATOM     63  O5  IDS C   4      24.036  12.597  58.9270  0.00  0.00     0.000 O
ATOM     64   O  IDS C   4      23.062  12.018  62.4110  0.00  0.00     0.000 O
ATOM     66  HD  IDS C   4      23.900  11.811  62.4810  0.00  0.00     0.000 HD
BRANCH 59 66
ATOM     66   O  IDS C   4      21.361  13.490  59.6480  0.00  0.00     0.000 O
ATOM     67   S  IDS C   4      19.776  13.340  59.6320  0.00  0.00     0.000 S
ATOM     68   O  IDS C   4      19.426  13.413  61.0310  0.00  0.00     0.000 OA
ATOM     69   O  IDS C   4      19.305  14.448  58.8260  0.00  0.00     0.000 OA
ATOM     70   O  IDS C   4      19.473  12.033  59.0710  0.00  0.00     0.000 OA
ENDBRANCH 59 66
BRANCH 62 71
ATOM     71   C  IDS C   4      26.115  13.563  59.4000  0.00  0.00     0.000 C
ATOM     72   O  IDS C   4      26.168  13.750  58.1990  0.00  0.00     0.000 OA
ATOM     73   O  IDS C   4      27.072  13.860  60.1430  0.00  0.00     0.000 OA
ENDBRANCH 62 71
BRANCH 58 74
ATOM     74  O4  SGN C   5      23.350  10.426  59.6860  0.00  0.00     0.000 O
BRANCH 74 78
ATOM     75  C1  SGN C   5      24.077   6.536  58.3530  0.00  0.00     0.000 C
ATOM     76  C2  SGN C   5      25.251   7.525  58.2240  0.00  0.00     0.000 C
ATOM     77  C3  SGN C   5      24.984   8.794  59.0450  0.00  0.00     0.000 C
ATOM     78  C4  SGN C   5      23.591   9.348  58.7830  0.00  0.00     0.000 C
ATOM     79  C5  SGN C   5      22.561   8.245  58.9800  0.00  0.00     0.000 C
ATOM     80  O5  SGN C   5      22.833   7.157  58.0580  0.00  0.00     0.000 O
ATOM     81   O  SGN C   5      25.976   9.765  58.7290  0.00  0.00     0.000 O
ATOM     83  HD  SGN C   5      26.798   9.542  58.5750  0.00  0.00     0.000 HD
BRANCH 76 85
ATOM     83   N  SGN C   5      26.610   7.103  58.5880  0.00  0.00     0.000 N
ATOM     85  HD  SGN C   5      27.420   6.871  58.3890  0.00  0.00     0.000 HD
ATOM     85   S  SGN C   5      27.559   6.002  57.8950  0.00  0.00     0.000 S
ATOM     86   O  SGN C   5      28.819   5.948  58.5510  0.00  0.00     0.000 OA
ATOM     87   O  SGN C   5      26.816   4.795  57.8220  0.00  0.00     0.000 OA
ATOM     88   O  SGN C   5      27.683   6.714  56.5500  0.00  0.00     0.000 OA
ENDBRANCH 76 85
BRANCH 79 89
ATOM     89   C  SGN C   5      21.134   8.706  58.7640  0.00  0.00     0.000 C
ATOM     90   O  SGN C   5      20.229   7.584  58.9120  0.00  0.00     0.000 O
ATOM     91   S  SGN C   5      18.765   7.909  59.4830  0.00  0.00     0.000 S
ATOM     92   O  SGN C   5      18.959   8.646  60.7040  0.00  0.00     0.000 OA
ATOM     93   O  SGN C   5      18.079   8.680  58.4780  0.00  0.00     0.000 OA
ATOM     94   O  SGN C   5      18.193   6.606  59.6860  0.00  0.00     0.000 OA
ENDBRANCH 79 89
BRANCH 75 95
ATOM     95  O4  BDP C   6      24.084   6.118  59.6540  0.00  0.00     0.000 O
BRANCH 95 99
ATOM     96  C1  BDP C   6      22.617   2.476  61.3950  0.00  0.00     0.000 C
ATOM     97  C2  BDP C   6      23.148   2.441  59.9900  0.00  0.00     0.000 C
ATOM     98  C3  BDP C   6      23.986   3.668  59.5980  0.00  0.00     0.000 C
ATOM     99  C4  BDP C   6      23.279   4.962  59.9710  0.00  0.00     0.000 C
ATOM    100  C5  BDP C   6      22.828   4.853  61.4460  0.00  0.00     0.000 C
ATOM    101  O5  BDP C   6      21.944   3.721  61.4450  0.00  0.00     0.000 O
BRANCH 100 102
ATOM    102   C  BDP C   6      22.042   6.055  61.9050  0.00  0.00     0.000 C
ATOM    103   O  BDP C   6      22.590   7.069  62.3620  0.00  0.00     0.000 OA
ATOM    104   O  BDP C   6      20.812   5.994  61.7940  0.00  0.00     0.000 OA
ENDBRANCH 100 102
ENDBRANCH 95 99
ENDBRANCH 75 95
ENDBRANCH 74 78
ENDBRANCH 58 74
ENDBRANCH 57 61
ENDBRANCH 37 57
ENDBRANCH 36 40
ENDBRANCH 23 36
ENDBRANCH 22 26
ENDBRANCH 1 22
TORSDOF 20
ENDMDL
MODEL 35
REMARK VINA RESULT:      -3.6     24.881     33.516
ROOT
ATOM      1  C1  NGY C   1      42.053  40.438   7.1970  0.00  0.00     0.000 C
ATOM      2  C2  NGY C   1      43.243  40.933   8.0080  0.00  0.00     0.000 C
ATOM      3  C3  NGY C   1      44.026  41.975   7.2170  0.00  0.00     0.000 C
ATOM      4  C4  NGY C   1      44.400  41.371   5.8760  0.00  0.00     0.000 C
ATOM      5  C5  NGY C   1      43.121  40.996   5.1340  0.00  0.00     0.000 C
ATOM      6  O5  NGY C   1      42.423  39.989   5.9110  0.00  0.00     0.000 O
ATOM      7   O  NGY C   1      45.169  42.366   7.9640  0.00  0.00     0.000 O
ATOM      9  HD  NGY C   1      45.742  41.992   8.4950  0.00  0.00     0.000 HD
ATOM      9   O  NGY C   1      45.164  42.285   5.1030  0.00  0.00     0.000 O
ATOM     11  HD  NGY C   1      45.737  41.912   5.6340  0.00  0.00     0.000 HD
ENDROOT
BRANCH 2 13
ATOM     11   N  NGY C   1      43.851  40.661   9.2900  0.00  0.00     0.000 N
ATOM     13  HD  NGY C   1      43.300  41.099   9.7950  0.00  0.00     0.000 HD
ATOM     13   C  NGY C   1      43.342  41.147  10.4210  0.00  0.00     0.000 C
ATOM     14   O  NGY C   1      42.418  41.962  10.4050  0.00  0.00     0.000 OA
ATOM     15   C  NGY C   1      43.929  40.631  11.6990  0.00  0.00     0.000 C
ENDBRANCH 2 13
BRANCH 5 16
ATOM     16   C  NGY C   1      43.325  40.393   3.7810  0.00  0.00     0.000 C
ATOM     17   O  NGY C   1      42.951  42.243   0.6350  0.00  0.00     0.000 OA
ATOM     18   O  NGY C   1      42.889  41.328   2.7900  0.00  0.00     0.000 O
ATOM     19   S  NGY C   1      43.425  41.076   1.3350  0.00  0.00     0.000 S
ATOM     20   O  NGY C   1      42.810  39.864   0.8600  0.00  0.00     0.000 OA
ATOM     21   O  NGY C   1      44.867  40.973   1.4880  0.00  0.00     0.000 OA
ENDBRANCH 5 16
BRANCH 1 22
ATOM     22  O4  BDP C   2      41.119  41.412   7.1580  0.00  0.00     0.000 O
BRANCH 22 26
ATOM     23  C1  BDP C   2      37.171  42.585   7.1230  0.00  0.00     0.000 C
ATOM     24  C2  BDP C   2      37.521  41.510   8.1250  0.00  0.00     0.000 C
ATOM     25  C3  BDP C   2      39.016  41.440   8.2900  0.00  0.00     0.000 C
ATOM     26  C4  BDP C   2      39.691  41.279   6.9320  0.00  0.00     0.000 C
ATOM     27  C5  BDP C   2      39.134  42.304   5.9530  0.00  0.00     0.000 C
ATOM     28  O5  BDP C   2      37.692  42.220   5.8140  0.00  0.00     0.000 O
ATOM     29   O  BDP C   2      37.051  41.817   9.4380  0.00  0.00     0.000 O
ATOM     31  HD  BDP C   2      37.557  41.572  10.0970  0.00  0.00     0.000 HD
ATOM     31   O  BDP C   2      39.290  40.310   9.1090  0.00  0.00     0.000 O
ATOM     33  HD  BDP C   2      39.795  40.065   9.7680  0.00  0.00     0.000 HD
BRANCH 27 33
ATOM     33   C  BDP C   2      39.690  42.135   4.5600  0.00  0.00     0.000 C
ATOM     34   O  BDP C   2      39.535  41.076   3.9050  0.00  0.00     0.000 OA
ATOM     35   O  BDP C   2      40.339  43.049   4.0790  0.00  0.00     0.000 OA
ENDBRANCH 27 33
BRANCH 23 36
ATOM     36  O4  SGN C   3      35.849  42.837   6.9820  0.00  0.00     0.000 O
BRANCH 36 40
ATOM     37  C1  SGN C   3      32.985  45.855   6.6330  0.00  0.00     0.000 C
ATOM     38  C2  SGN C   3      33.569  45.271   5.3360  0.00  0.00     0.000 C
ATOM     39  C3  SGN C   3      34.236  43.931   5.6090  0.00  0.00     0.000 C
ATOM     40  C4  SGN C   3      35.287  44.118   6.6820  0.00  0.00     0.000 C
ATOM     41  C5  SGN C   3      34.631  44.715   7.9080  0.00  0.00     0.000 C
ATOM     42  O5  SGN C   3      34.040  45.981   7.5730  0.00  0.00     0.000 O
ATOM     43   O  SGN C   3      34.818  43.443   4.4060  0.00  0.00     0.000 O
ATOM     45  HD  SGN C   3      35.251  43.134   5.0900  0.00  0.00     0.000 HD
BRANCH 38 47
ATOM     45   N  SGN C   3      32.210  45.369   4.7740  0.00  0.00     0.000 N
ATOM     47  HD  SGN C   3      32.726  45.100   5.4150  0.00  0.00     0.000 HD
ATOM     47   S  SGN C   3      32.130  46.421   3.5850  0.00  0.00     0.000 S
ATOM     48   O  SGN C   3      32.358  47.744   4.0480  0.00  0.00     0.000 OA
ATOM     49   O  SGN C   3      32.997  45.944   2.5580  0.00  0.00     0.000 OA
ATOM     50   O  SGN C   3      30.725  46.322   3.1940  0.00  0.00     0.000 OA
ENDBRANCH 38 47
BRANCH 41 51
ATOM     51   C  SGN C   3      35.573  44.948   9.0580  0.00  0.00     0.000 C
ATOM     52   O  SGN C   3      35.573  47.825  11.4250  0.00  0.00     0.000 OA
ATOM     53   O  SGN C   3      36.145  45.533  11.8120  0.00  0.00     0.000 OA
ATOM     54   O  SGN C   3      37.461  46.880  10.3230  0.00  0.00     0.000 OA
ATOM     55   O  SGN C   3      35.192  46.130   9.7260  0.00  0.00     0.000 O
ATOM     56   S  SGN C   3      36.188  46.639  10.9340  0.00  0.00     0.000 S
ENDBRANCH 41 51
BRANCH 37 57
ATOM     57  O4  IDS C   4      32.002  45.110   7.1960  0.00  0.00     0.000 O
BRANCH 57 61
ATOM     58  C1  IDS C   4      28.422  44.963   8.4730  0.00  0.00     0.000 C
ATOM     59  C2  IDS C   4      28.743  45.888   7.3410  0.00  0.00     0.000 C
ATOM     60  C3  IDS C   4      30.088  46.596   7.5200  0.00  0.00     0.000 C
ATOM     61  C4  IDS C   4      31.199  45.791   8.1800  0.00  0.00     0.000 C
ATOM     62  C5  IDS C   4      30.623  44.801   9.1980  0.00  0.00     0.000 C
ATOM     63  O5  IDS C   4      29.517  44.085   8.6670  0.00  0.00     0.000 O
ATOM     64   O  IDS C   4      29.811  47.722   8.3330  0.00  0.00     0.000 O
ATOM     66  HD  IDS C   4      30.190  47.638   9.1070  0.00  0.00     0.000 HD
BRANCH 59 66
ATOM     66   O  IDS C   4      28.818  45.167   6.0560  0.00  0.00     0.000 O
ATOM     67   S  IDS C   4      27.617  45.401   5.0390  0.00  0.00     0.000 S
ATOM     68   O  IDS C   4      27.737  46.800   4.7050  0.00  0.00     0.000 OA
ATOM     69   O  IDS C   4      27.873  44.487   3.9430  0.00  0.00     0.000 OA
ATOM     70   O  IDS C   4      26.383  45.125   5.7590  0.00  0.00     0.000 OA
ENDBRANCH 59 66
BRANCH 62 71
ATOM     71   C  IDS C   4      31.622  43.746   9.6330  0.00  0.00     0.000 C
ATOM     72   O  IDS C   4      31.546  42.615   9.1930  0.00  0.00     0.000 OA
ATOM     73   O  IDS C   4      32.446  44.040  10.5220  0.00  0.00     0.000 OA
ENDBRANCH 62 71
BRANCH 58 74
ATOM     74  O4  SGN C   5      27.844  45.558   9.5550  0.00  0.00     0.000 O
BRANCH 74 78
ATOM     75  C1  SGN C   5      25.081  45.192  12.6660  0.00  0.00     0.000 C
ATOM     76  C2  SGN C   5      26.263  44.204  12.6910  0.00  0.00     0.000 C
ATOM     77  C3  SGN C   5      27.365  44.651  11.7220  0.00  0.00     0.000 C
ATOM     78  C4  SGN C   5      26.798  45.005  10.3540  0.00  0.00     0.000 C
ATOM     79  C5  SGN C   5      25.664  46.005  10.5180  0.00  0.00     0.000 C
ATOM     80  O5  SGN C   5      24.619  45.423  11.3410  0.00  0.00     0.000 O
ATOM     81   O  SGN C   5      28.330  43.610  11.6090  0.00  0.00     0.000 O
ATOM     83  HD  SGN C   5      28.555  43.123  12.2890  0.00  0.00     0.000 HD
BRANCH 76 85
ATOM     83   N  SGN C   5      25.694  43.869  14.0030  0.00  0.00     0.000 N
ATOM     85  HD  SGN C   5      25.736  43.816  14.8660  0.00  0.00     0.000 HD
ATOM     85   S  SGN C   5      26.395  43.170  15.2730  0.00  0.00     0.000 S
ATOM     86   O  SGN C   5      25.480  43.077  16.3580  0.00  0.00     0.000 OA
ATOM     87   O  SGN C   5      26.979  41.960  14.8170  0.00  0.00     0.000 OA
ATOM     88   O  SGN C   5      27.419  44.274  15.5260  0.00  0.00     0.000 OA
ENDBRANCH 76 85
BRANCH 79 89
ATOM     89   C  SGN C   5      25.047  46.440   9.2040  0.00  0.00     0.000 C
ATOM     90   O  SGN C   5      24.807  47.868   9.2240  0.00  0.00     0.000 O
ATOM     91   S  SGN C   5      24.911  48.637   7.8190  0.00  0.00     0.000 S
ATOM     92   O  SGN C   5      26.188  48.284   7.2570  0.00  0.00     0.000 OA
ATOM     93   O  SGN C   5      23.809  48.188   7.0080  0.00  0.00     0.000 OA
ATOM     94   O  SGN C   5      24.814  50.022   8.1930  0.00  0.00     0.000 OA
ENDBRANCH 79 89
BRANCH 75 95
ATOM     95  O4  BDP C   6      25.559  46.357  13.1950  0.00  0.00     0.000 O
BRANCH 95 99
ATOM     96  C1  BDP C   6      23.394  49.273  15.4880  0.00  0.00     0.000 C
ATOM     97  C2  BDP C   6      22.819  47.891  15.3510  0.00  0.00     0.000 C
ATOM     98  C3  BDP C   6      23.819  46.835  14.8560  0.00  0.00     0.000 C
ATOM     99  C4  BDP C   6      24.580  47.324  13.6330  0.00  0.00     0.000 C
ATOM    100  C5  BDP C   6      25.134  48.733  13.9460  0.00  0.00     0.000 C
ATOM    101  O5  BDP C   6      23.954  49.508  14.2090  0.00  0.00     0.000 O
BRANCH 100 102
ATOM    102   C  BDP C   6      25.845  49.354  12.7700  0.00  0.00     0.000 C
ATOM    103   O  BDP C   6      25.232  49.855  11.8160  0.00  0.00     0.000 OA
ATOM    104   O  BDP C   6      27.081  49.354  12.8010  0.00  0.00     0.000 OA
ENDBRANCH 100 102
ENDBRANCH 95 99
ENDBRANCH 75 95
ENDBRANCH 74 78
ENDBRANCH 58 74
ENDBRANCH 57 61
ENDBRANCH 37 57
ENDBRANCH 36 40
ENDBRANCH 23 36
ENDBRANCH 22 26
ENDBRANCH 1 22
TORSDOF 20
ENDMDL
MODEL 36
REMARK VINA RESULT:      -3.5     28.055     32.206
ROOT
ATOM      1  C1  NGY C   1      20.528  20.069  57.1430  0.00  0.00     0.000 C
ATOM      2  C2  NGY C   1      20.210  21.013  58.2940  0.00  0.00     0.000 C
ATOM      3  C3  NGY C   1      19.002  20.507  59.0750  0.00  0.00     0.000 C
ATOM      4  C4  NGY C   1      17.855  20.310  58.1020  0.00  0.00     0.000 C
ATOM      5  C5  NGY C   1      18.273  19.284  57.0530  0.00  0.00     0.000 C
ATOM      6  O5  NGY C   1      19.407  19.818  56.3220  0.00  0.00     0.000 O
ATOM      7   O  NGY C   1      18.681  21.441  60.0960  0.00  0.00     0.000 O
ATOM      9  HD  NGY C   1      18.685  22.301  60.1970  0.00  0.00     0.000 HD
ATOM      9   O  NGY C   1      16.685  19.870  58.7770  0.00  0.00     0.000 O
ATOM     11  HD  NGY C   1      16.690  20.730  58.8780  0.00  0.00     0.000 HD
ENDROOT
BRANCH 2 13
ATOM     11   N  NGY C   1      21.513  21.211  58.8840  0.00  0.00     0.000 N
ATOM     13  HD  NGY C   1      21.384  21.993  59.2350  0.00  0.00     0.000 HD
ATOM     13   C  NGY C   1      21.812  22.320  59.5590  0.00  0.00     0.000 C
ATOM     14   O  NGY C   1      21.039  23.279  59.5840  0.00  0.00     0.000 OA
ATOM     15   C  NGY C   1      23.114  22.325  60.3010  0.00  0.00     0.000 C
ENDBRANCH 2 13
BRANCH 5 16
ATOM     16   C  NGY C   1      17.237  18.973  56.0200  0.00  0.00     0.000 C
ATOM     17   O  NGY C   1      18.002  18.208  52.5150  0.00  0.00     0.000 OA
ATOM     18   O  NGY C   1      17.864  18.941  54.7350  0.00  0.00     0.000 O
ATOM     19   S  NGY C   1      17.059  18.205  53.6040  0.00  0.00     0.000 S
ATOM     20   O  NGY C   1      15.895  19.003  53.3230  0.00  0.00     0.000 OA
ATOM     21   O  NGY C   1      16.747  16.901  54.1660  0.00  0.00     0.000 OA
ENDBRANCH 5 16
BRANCH 1 22
ATOM     22  O4  BDP C   2      21.067  18.938  57.6460  0.00  0.00     0.000 O
BRANCH 22 26
ATOM     23  C1  BDP C   2      23.536  15.746  56.8210  0.00  0.00     0.000 C
ATOM     24  C2  BDP C   2      23.586  16.880  55.8250  0.00  0.00     0.000 C
ATOM     25  C3  BDP C   2      22.939  18.104  56.4200  0.00  0.00     0.000 C
ATOM     26  C4  BDP C   2      21.540  17.770  56.9250  0.00  0.00     0.000 C
ATOM     27  C5  BDP C   2      21.585  16.508  57.7770  0.00  0.00     0.000 C
ATOM     28  O5  BDP C   2      22.151  15.374  57.0700  0.00  0.00     0.000 O
ATOM     29   O  BDP C   2      24.921  17.305  55.5500  0.00  0.00     0.000 O
ATOM     31  HD  BDP C   2      25.038  18.153  55.4160  0.00  0.00     0.000 HD
ATOM     31   O  BDP C   2      22.866  19.077  55.3850  0.00  0.00     0.000 O
ATOM     33  HD  BDP C   2      22.983  19.924  55.2500  0.00  0.00     0.000 HD
BRANCH 27 33
ATOM     33   C  BDP C   2      20.214  16.066  58.2280  0.00  0.00     0.000 C
ATOM     34   O  BDP C   2      19.336  15.687  57.4170  0.00  0.00     0.000 OA
ATOM     35   O  BDP C   2      19.951  16.116  59.4180  0.00  0.00     0.000 OA
ENDBRANCH 27 33
BRANCH 23 36
ATOM     36  O4  SGN C   3      24.202  14.625  56.4570  0.00  0.00     0.000 O
BRANCH 36 40
ATOM     37  C1  SGN C   3      26.640  11.487  57.7350  0.00  0.00     0.000 C
ATOM     38  C2  SGN C   3      25.198  11.532  58.2650  0.00  0.00     0.000 C
ATOM     39  C3  SGN C   3      24.339  12.438  57.3950  0.00  0.00     0.000 C
ATOM     40  C4  SGN C   3      24.977  13.810  57.3400  0.00  0.00     0.000 C
ATOM     41  C5  SGN C   3      26.395  13.668  56.8310  0.00  0.00     0.000 C
ATOM     42  O5  SGN C   3      27.143  12.814  57.7110  0.00  0.00     0.000 O
ATOM     43   O  SGN C   3      23.029  12.508  57.9420  0.00  0.00     0.000 O
ATOM     45  HD  SGN C   3      23.204  13.233  57.5020  0.00  0.00     0.000 HD
BRANCH 38 47
ATOM     45   N  SGN C   3      24.974  10.915  59.5840  0.00  0.00     0.000 N
ATOM     47  HD  SGN C   3      24.922  11.616  59.0790  0.00  0.00     0.000 HD
ATOM     47   S  SGN C   3      25.066   9.329  59.5250  0.00  0.00     0.000 S
ATOM     48   O  SGN C   3      24.010   8.777  58.7530  0.00  0.00     0.000 OA
ATOM     49   O  SGN C   3      26.394   9.012  59.1120  0.00  0.00     0.000 OA
ATOM     50   O  SGN C   3      24.836   8.965  60.9220  0.00  0.00     0.000 OA
ENDBRANCH 38 47
BRANCH 41 51
ATOM     51   C  SGN C   3      27.143  14.969  56.7230  0.00  0.00     0.000 C
ATOM     52   O  SGN C   3      27.896  17.371  59.4690  0.00  0.00     0.000 OA
ATOM     53   O  SGN C   3      29.193  16.811  57.5370  0.00  0.00     0.000 OA
ATOM     54   O  SGN C   3      27.063  17.894  57.3000  0.00  0.00     0.000 OA
ATOM     55   O  SGN C   3      27.248  15.542  58.0080  0.00  0.00     0.000 O
ATOM     56   S  SGN C   3      27.911  17.046  58.0840  0.00  0.00     0.000 S
ENDBRANCH 41 51
BRANCH 37 57
ATOM     57  O4  IDS C   4      26.770  10.962  56.4910  0.00  0.00     0.000 O
BRANCH 57 61
ATOM     58  C1  IDS C   4      28.941   8.652  54.3900  0.00  0.00     0.000 C
ATOM     59  C2  IDS C   4      28.980   8.516  55.8790  0.00  0.00     0.000 C
ATOM     60  C3  IDS C   4      28.953   9.867  56.5970  0.00  0.00     0.000 C
ATOM     61  C4  IDS C   4      28.108  10.961  55.9590  0.00  0.00     0.000 C
ATOM     62  C5  IDS C   4      28.091  10.813  54.4330  0.00  0.00     0.000 C
ATOM     63  O5  IDS C   4      27.841   9.472  54.0360  0.00  0.00     0.000 O
ATOM     64   O  IDS C   4      30.299  10.302  56.6230  0.00  0.00     0.000 O
ATOM     66  HD  IDS C   4      30.401  11.004  56.1270  0.00  0.00     0.000 HD
BRANCH 59 66
ATOM     66   O  IDS C   4      27.824   7.751  56.3840  0.00  0.00     0.000 O
ATOM     67   S  IDS C   4      28.137   6.322  57.0120  0.00  0.00     0.000 S
ATOM     68   O  IDS C   4      28.928   6.641  58.1760  0.00  0.00     0.000 OA
ATOM     69   O  IDS C   4      26.838   5.746  57.2960  0.00  0.00     0.000 OA
ATOM     70   O  IDS C   4      28.907   5.579  56.0270  0.00  0.00     0.000 OA
ENDBRANCH 59 66
BRANCH 62 71
ATOM     71   C  IDS C   4      27.010  11.644  53.7670  0.00  0.00     0.000 C
ATOM     72   O  IDS C   4      27.135  12.850  53.6790  0.00  0.00     0.000 OA
ATOM     73   O  IDS C   4      25.958  11.076  53.4130  0.00  0.00     0.000 OA
ENDBRANCH 62 71
BRANCH 58 74
ATOM     74  O4  SGN C   5      30.151   8.870  53.8010  0.00  0.00     0.000 O
BRANCH 74 78
ATOM     75  C1  SGN C   5      32.607   8.082  50.5150  0.00  0.00     0.000 C
ATOM     76  C2  SGN C   5      31.254   8.750  50.2030  0.00  0.00     0.000 C
ATOM     77  C3  SGN C   5      30.608   9.292  51.4850  0.00  0.00     0.000 C
ATOM     78  C4  SGN C   5      30.619   8.255  52.6000  0.00  0.00     0.000 C
ATOM     79  C5  SGN C   5      32.033   7.725  52.7860  0.00  0.00     0.000 C
ATOM     80  O5  SGN C   5      32.489   7.114  51.5500  0.00  0.00     0.000 O
ATOM     81   O  SGN C   5      29.275   9.699  51.1940  0.00  0.00     0.000 O
ATOM     83  HD  SGN C   5      29.068  10.072  50.4400  0.00  0.00     0.000 HD
BRANCH 76 85
ATOM     83   N  SGN C   5      30.760   9.019  48.8470  0.00  0.00     0.000 N
ATOM     85  HD  SGN C   5      30.870   9.092  47.9910  0.00  0.00     0.000 HD
ATOM     85   S  SGN C   5      31.459   9.836  47.6480  0.00  0.00     0.000 S
ATOM     86   O  SGN C   5      30.640   9.811  46.4860  0.00  0.00     0.000 OA
ATOM     87   O  SGN C   5      31.814  11.111  48.1600  0.00  0.00     0.000 OA
ATOM     88   O  SGN C   5      32.654   8.900  47.4840  0.00  0.00     0.000 OA
ENDBRANCH 76 85
BRANCH 79 89
ATOM     89   C  SGN C   5      32.152   6.700  53.8960  0.00  0.00     0.000 C
ATOM     90   O  SGN C   5      32.566   5.426  53.3430  0.00  0.00     0.000 O
ATOM     91   S  SGN C   5      33.463   4.488  54.2880  0.00  0.00     0.000 S
ATOM     92   O  SGN C   5      34.565   5.298  54.7370  0.00  0.00     0.000 OA
ATOM     93   O  SGN C   5      32.622   4.052  55.3730  0.00  0.00     0.000 OA
ATOM     94   O  SGN C   5      33.858   3.419  53.4120  0.00  0.00     0.000 OA
ENDBRANCH 79 89
BRANCH 75 95
ATOM     95  O4  BDP C   6      33.434   9.091  50.9230  0.00  0.00     0.000 O
BRANCH 95 99
ATOM     96  C1  BDP C   6      37.687   9.552  50.5450  0.00  0.00     0.000 C
ATOM     97  C2  BDP C   6      36.932   8.885  49.4300  0.00  0.00     0.000 C
ATOM     98  C3  BDP C   6      35.412   9.106  49.4730  0.00  0.00     0.000 C
ATOM     99  C4  BDP C   6      34.853   8.834  50.8620  0.00  0.00     0.000 C
ATOM    100  C5  BDP C   6      35.713   9.614  51.8840  0.00  0.00     0.000 C
ATOM    101  O5  BDP C   6      37.030   9.070  51.7020  0.00  0.00     0.000 O
BRANCH 100 102
ATOM    102   C  BDP C   6      35.297   9.356  53.3100  0.00  0.00     0.000 C
ATOM    103   O  BDP C   6      34.645  10.180  53.9690  0.00  0.00     0.000 OA
ATOM    104   O  BDP C   6      35.625   8.270  53.8000  0.00  0.00     0.000 OA
ENDBRANCH 100 102
ENDBRANCH 95 99
ENDBRANCH 75 95
ENDBRANCH 74 78
ENDBRANCH 58 74
ENDBRANCH 57 61
ENDBRANCH 37 57
ENDBRANCH 36 40
ENDBRANCH 23 36
ENDBRANCH 22 26
ENDBRANCH 1 22
TORSDOF 20
ENDMDL
MODEL 37
REMARK VINA RESULT:      -3.3     15.649     19.883
ROOT
ATOM      1  C1  NGY C   1      17.767  46.708  31.9710  0.00  0.00     0.000 C
ATOM      2  C2  NGY C   1      18.519  46.922  33.2770  0.00  0.00     0.000 C
ATOM      3  C3  NGY C   1      18.319  45.727  34.2040  0.00  0.00     0.000 C
ATOM      4  C4  NGY C   1      16.829  45.504  34.3780  0.00  0.00     0.000 C
ATOM      5  C5  NGY C   1      16.213  45.221  33.0100  0.00  0.00     0.000 C
ATOM      6  O5  NGY C   1      16.407  46.390  32.1730  0.00  0.00     0.000 O
ATOM      7   O  NGY C   1      18.968  45.982  35.4410  0.00  0.00     0.000 O
ATOM      9  HD  NGY C   1      19.110  46.662  35.9590  0.00  0.00     0.000 HD
ATOM      9   O  NGY C   1      16.576  44.421  35.2610  0.00  0.00     0.000 O
ATOM     11  HD  NGY C   1      16.718  45.101  35.7780  0.00  0.00     0.000 HD
ENDROOT
BRANCH 2 13
ATOM     11   N  NGY C   1      19.811  47.362  32.8050  0.00  0.00     0.000 N
ATOM     13  HD  NGY C   1      20.057  47.821  33.4960  0.00  0.00     0.000 HD
ATOM     13   C  NGY C   1      20.602  48.132  33.5510  0.00  0.00     0.000 C
ATOM     14   O  NGY C   1      20.203  48.617  34.6110  0.00  0.00     0.000 OA
ATOM     15   C  NGY C   1      21.996  48.351  33.0480  0.00  0.00     0.000 C
ENDBRANCH 2 13
BRANCH 5 16
ATOM     16   C  NGY C   1      14.740  44.968  33.0170  0.00  0.00     0.000 C
ATOM     17   O  NGY C   1      12.415  46.333  30.5290  0.00  0.00     0.000 OA
ATOM     18   O  NGY C   1      14.123  45.819  32.0470  0.00  0.00     0.000 O
ATOM     19   S  NGY C   1      12.680  45.396  31.5910  0.00  0.00     0.000 S
ATOM     20   O  NGY C   1      11.806  45.586  32.7190  0.00  0.00     0.000 OA
ATOM     21   O  NGY C   1      12.815  44.006  31.1890  0.00  0.00     0.000 OA
ENDBRANCH 5 16
BRANCH 1 22
ATOM     22  O4  BDP C   2      18.416  45.774  31.2440  0.00  0.00     0.000 O
BRANCH 22 26
ATOM     23  C1  BDP C   2      19.440  44.053  27.6450  0.00  0.00     0.000 C
ATOM     24  C2  BDP C   2      19.890  45.483  27.8330  0.00  0.00     0.000 C
ATOM     25  C3  BDP C   2      19.784  45.859  29.2880  0.00  0.00     0.000 C
ATOM     26  C4  BDP C   2      18.380  45.567  29.8080  0.00  0.00     0.000 C
ATOM     27  C5  BDP C   2      17.964  44.157  29.4080  0.00  0.00     0.000 C
ATOM     28  O5  BDP C   2      18.027  43.939  27.9750  0.00  0.00     0.000 O
ATOM     29   O  BDP C   2      21.277  45.659  27.5410  0.00  0.00     0.000 O
ATOM     31  HD  BDP C   2      21.706  46.230  28.0310  0.00  0.00     0.000 HD
ATOM     31   O  BDP C   2      20.057  47.251  29.3760  0.00  0.00     0.000 O
ATOM     33  HD  BDP C   2      20.487  47.822  29.8660  0.00  0.00     0.000 HD
BRANCH 27 33
ATOM     33   C  BDP C   2      16.543  43.839  29.8090  0.00  0.00     0.000 C
ATOM     34   O  BDP C   2      16.242  42.780  30.4100  0.00  0.00     0.000 OA
ATOM     35   O  BDP C   2      15.663  44.627  29.5020  0.00  0.00     0.000 OA
ENDBRANCH 27 33
BRANCH 23 36
ATOM     36  O4  SGN C   3      19.611  43.551  26.4000  0.00  0.00     0.000 O
BRANCH 36 40
ATOM     37  C1  SGN C   3      20.043  39.912  24.4000  0.00  0.00     0.000 C
ATOM     38  C2  SGN C   3      18.779  40.740  24.1120  0.00  0.00     0.000 C
ATOM     39  C3  SGN C   3      18.976  42.182  24.5550  0.00  0.00     0.000 C
ATOM     40  C4  SGN C   3      19.354  42.196  26.0200  0.00  0.00     0.000 C
ATOM     41  C5  SGN C   3      20.588  41.343  26.2130  0.00  0.00     0.000 C
ATOM     42  O5  SGN C   3      20.318  39.997  25.7890  0.00  0.00     0.000 O
ATOM     43   O  SGN C   3      17.774  42.909  24.3320  0.00  0.00     0.000 O
ATOM     45  HD  SGN C   3      18.217  43.264  24.9860  0.00  0.00     0.000 HD
BRANCH 38 47
ATOM     45   N  SGN C   3      18.614  40.645  22.6510  0.00  0.00     0.000 N
ATOM     47  HD  SGN C   3      19.033  40.989  23.3260  0.00  0.00     0.000 HD
ATOM     47   S  SGN C   3      17.726  39.395  22.2300  0.00  0.00     0.000 S
ATOM     48   O  SGN C   3      18.377  38.171  22.5370  0.00  0.00     0.000 OA
ATOM     49   O  SGN C   3      16.437  39.597  22.8060  0.00  0.00     0.000 OA
ATOM     50   O  SGN C   3      17.693  39.530  20.7750  0.00  0.00     0.000 OA
ENDBRANCH 38 47
BRANCH 41 51
ATOM     51   C  SGN C   3      21.074  41.277  27.6360  0.00  0.00     0.000 C
ATOM     52   O  SGN C   3      19.066  40.479  30.6710  0.00  0.00     0.000 OA
ATOM     53   O  SGN C   3      21.354  39.974  30.1810  0.00  0.00     0.000 OA
ATOM     54   O  SGN C   3      20.636  42.252  30.4210  0.00  0.00     0.000 OA
ATOM     55   O  SGN C   3      20.001  40.893  28.4670  0.00  0.00     0.000 O
ATOM     56   S  SGN C   3      20.293  40.902  30.0860  0.00  0.00     0.000 S
ENDBRANCH 41 51
BRANCH 37 57
ATOM     57  O4  IDS C   4      21.147  40.312  23.7230  0.00  0.00     0.000 O
BRANCH 57 61
ATOM     58  C1  IDS C   4      24.121  39.926  21.3830  0.00  0.00     0.000 C
ATOM     59  C2  IDS C   4      22.745  39.718  20.8350  0.00  0.00     0.000 C
ATOM     60  C3  IDS C   4      21.831  38.963  21.8030  0.00  0.00     0.000 C
ATOM     61  C4  IDS C   4      22.020  39.253  23.2860  0.00  0.00     0.000 C
ATOM     62  C5  IDS C   4      23.484  39.588  23.5910  0.00  0.00     0.000 C
ATOM     63  O5  IDS C   4      24.015  40.524  22.6640  0.00  0.00     0.000 O
ATOM     64   O  IDS C   4      22.104  37.592  21.5790  0.00  0.00     0.000 O
ATOM     66  HD  IDS C   4      22.484  37.241  22.2740  0.00  0.00     0.000 HD
BRANCH 59 66
ATOM     66   O  IDS C   4      22.077  41.001  20.5450  0.00  0.00     0.000 O
ATOM     67   S  IDS C   4      22.450  41.701  19.1660  0.00  0.00     0.000 S
ATOM     68   O  IDS C   4      21.949  40.773  18.1800  0.00  0.00     0.000 OA
ATOM     69   O  IDS C   4      21.771  42.981  19.2000  0.00  0.00     0.000 OA
ATOM     70   O  IDS C   4      23.900  41.806  19.1150  0.00  0.00     0.000 OA
ENDBRANCH 59 66
BRANCH 62 71
ATOM     71   C  IDS C   4      23.678  40.214  24.9600  0.00  0.00     0.000 C
ATOM     72   O  IDS C   4      23.980  41.387  25.0570  0.00  0.00     0.000 OA
ATOM     73   O  IDS C   4      23.623  39.475  25.9630  0.00  0.00     0.000 OA
ENDBRANCH 62 71
BRANCH 58 74
ATOM     74  O4  SGN C   5      24.975  38.879  21.2050  0.00  0.00     0.000 O
BRANCH 74 78
ATOM     75  C1  SGN C   5      28.915  37.674  20.5170  0.00  0.00     0.000 C
ATOM     76  C2  SGN C   5      28.602  38.182  21.9380  0.00  0.00     0.000 C
ATOM     77  C3  SGN C   5      27.086  38.264  22.1620  0.00  0.00     0.000 C
ATOM     78  C4  SGN C   5      26.386  38.974  21.0110  0.00  0.00     0.000 C
ATOM     79  C5  SGN C   5      26.791  38.328  19.6950  0.00  0.00     0.000 C
ATOM     80  O5  SGN C   5      28.230  38.430  19.5270  0.00  0.00     0.000 O
ATOM     81   O  SGN C   5      26.837  38.938  23.3910  0.00  0.00     0.000 O
ATOM     83  HD  SGN C   5      27.349  38.829  24.0810  0.00  0.00     0.000 HD
BRANCH 76 85
ATOM     83   N  SGN C   5      30.011  37.923  22.2580  0.00  0.00     0.000 N
ATOM     85  HD  SGN C   5      30.645  37.436  22.5900  0.00  0.00     0.000 HD
ATOM     85   S  SGN C   5      30.657  37.286  23.5880  0.00  0.00     0.000 S
ATOM     86   O  SGN C   5      32.068  37.176  23.4520  0.00  0.00     0.000 OA
ATOM     87   O  SGN C   5      30.171  38.036  24.6910  0.00  0.00     0.000 OA
ATOM     88   O  SGN C   5      29.996  35.916  23.4530  0.00  0.00     0.000 OA
ENDBRANCH 76 85
BRANCH 79 89
ATOM     89   C  SGN C   5      26.125  38.953  18.4860  0.00  0.00     0.000 C
ATOM     90   O  SGN C   5      26.634  40.294  18.2840  0.00  0.00     0.000 O
ATOM     91   S  SGN C   5      26.700  40.820  16.7690  0.00  0.00     0.000 S
ATOM     92   O  SGN C   5      27.420  39.821  16.0230  0.00  0.00     0.000 OA
ATOM     93   O  SGN C   5      25.342  40.974  16.3150  0.00  0.00     0.000 OA
ATOM     94   O  SGN C   5      27.406  42.068  16.8830  0.00  0.00     0.000 OA
ENDBRANCH 79 89
BRANCH 75 95
ATOM     95  O4  BDP C   6      28.486  36.377  20.4830  0.00  0.00     0.000 O
BRANCH 95 99
ATOM     96  C1  BDP C   6      29.876  33.098  18.0830  0.00  0.00     0.000 C
ATOM     97  C2  BDP C   6      30.843  34.191  18.4400  0.00  0.00     0.000 C
ATOM     98  C3  BDP C   6      30.379  35.097  19.5900  0.00  0.00     0.000 C
ATOM     99  C4  BDP C   6      28.947  35.568  19.3790  0.00  0.00     0.000 C
ATOM    100  C5  BDP C   6      28.079  34.329  19.0580  0.00  0.00     0.000 C
ATOM    101  O5  BDP C   6      28.671  33.805  17.8580  0.00  0.00     0.000 O
BRANCH 100 102
ATOM    102   C  BDP C   6      26.647  34.686  18.7520  0.00  0.00     0.000 C
ATOM    103   O  BDP C   6      25.707  34.335  19.4800  0.00  0.00     0.000 OA
ATOM    104   O  BDP C   6      26.445  35.363  17.7370  0.00  0.00     0.000 OA
ENDBRANCH 100 102
ENDBRANCH 95 99
ENDBRANCH 75 95
ENDBRANCH 74 78
ENDBRANCH 58 74
ENDBRANCH 57 61
ENDBRANCH 37 57
ENDBRANCH 36 40
ENDBRANCH 23 36
ENDBRANCH 22 26
ENDBRANCH 1 22
TORSDOF 20
ENDMDL
MODEL 38
REMARK VINA RESULT:      -3.3     27.170     33.385
ROOT
ATOM      1  C1  NGY C   1      39.457  38.757   7.5450  0.00  0.00     0.000 C
ATOM      2  C2  NGY C   1      40.964  38.976   7.5350  0.00  0.00     0.000 C
ATOM      3  C3  NGY C   1      41.455  39.213   6.1110  0.00  0.00     0.000 C
ATOM      4  C4  NGY C   1      40.994  38.052   5.2500  0.00  0.00     0.000 C
ATOM      5  C5  NGY C   1      39.469  37.995   5.2800  0.00  0.00     0.000 C
ATOM      6  O5  NGY C   1      39.051  37.746   6.6470  0.00  0.00     0.000 O
ATOM      7   O  NGY C   1      42.869  39.342   6.1200  0.00  0.00     0.000 O
ATOM      9  HD  NGY C   1      43.538  38.994   6.5460  0.00  0.00     0.000 HD
ATOM      9   O  NGY C   1      41.450  38.198   3.9130  0.00  0.00     0.000 O
ATOM     11  HD  NGY C   1      42.119  37.851   4.3390  0.00  0.00     0.000 HD
ENDROOT
BRANCH 2 13
ATOM     11   N  NGY C   1      42.027  38.967   8.5120  0.00  0.00     0.000 N
ATOM     13  HD  NGY C   1      41.920  39.764   8.8340  0.00  0.00     0.000 HD
ATOM     13   C  NGY C   1      42.270  40.022   9.2890  0.00  0.00     0.000 C
ATOM     14   O  NGY C   1      41.692  41.094   9.1060  0.00  0.00     0.000 OA
ATOM     15   C  NGY C   1      43.254  39.825  10.4020  0.00  0.00     0.000 C
ENDBRANCH 2 13
BRANCH 5 16
ATOM     16   C  NGY C   1      38.858  36.901   4.4650  0.00  0.00     0.000 C
ATOM     17   O  NGY C   1      37.733  33.696   5.8500  0.00  0.00     0.000 OA
ATOM     18   O  NGY C   1      38.742  35.731   5.2780  0.00  0.00     0.000 O
ATOM     19   S  NGY C   1      37.738  34.639   4.7610  0.00  0.00     0.000 S
ATOM     20   O  NGY C   1      38.297  34.083   3.5570  0.00  0.00     0.000 OA
ATOM     21   O  NGY C   1      36.494  35.359   4.5440  0.00  0.00     0.000 OA
ENDBRANCH 5 16
BRANCH 1 22
ATOM     22  O4  BDP C   2      38.845  39.936   7.3100  0.00  0.00     0.000 O
BRANCH 22 26
ATOM     23  C1  BDP C   2      35.685  42.523   7.8490  0.00  0.00     0.000 C
ATOM     24  C2  BDP C   2      36.286  41.958   9.1140  0.00  0.00     0.000 C
ATOM     25  C3  BDP C   2      37.625  41.342   8.8070  0.00  0.00     0.000 C
ATOM     26  C4  BDP C   2      37.496  40.336   7.6680  0.00  0.00     0.000 C
ATOM     27  C5  BDP C   2      36.721  40.960   6.5140  0.00  0.00     0.000 C
ATOM     28  O5  BDP C   2      35.412  41.442   6.9130  0.00  0.00     0.000 O
ATOM     29   O  BDP C   2      36.593  42.972  10.0710  0.00  0.00     0.000 O
ATOM     31  HD  BDP C   2      37.305  42.851  10.5490  0.00  0.00     0.000 HD
ATOM     31   O  BDP C   2      38.060  40.685   9.9910  0.00  0.00     0.000 O
ATOM     33  HD  BDP C   2      38.772  40.564  10.4690  0.00  0.00     0.000 HD
BRANCH 27 33
ATOM     33   C  BDP C   2      36.473  39.982   5.3900  0.00  0.00     0.000 C
ATOM     34   O  BDP C   2      35.847  38.910   5.5670  0.00  0.00     0.000 OA
ATOM     35   O  BDP C   2      36.929  40.237   4.2880  0.00  0.00     0.000 OA
ENDBRANCH 27 33
BRANCH 23 36
ATOM     36  O4  SGN C   3      34.537  43.221   8.0130  0.00  0.00     0.000 O
BRANCH 36 40
ATOM     37  C1  SGN C   3      32.349  46.543   6.7480  0.00  0.00     0.000 C
ATOM     38  C2  SGN C   3      32.974  45.646   5.6670  0.00  0.00     0.000 C
ATOM     39  C3  SGN C   3      33.341  44.289   6.2500  0.00  0.00     0.000 C
ATOM     40  C4  SGN C   3      34.264  44.498   7.4310  0.00  0.00     0.000 C
ATOM     41  C5  SGN C   3      33.581  45.407   8.4290  0.00  0.00     0.000 C
ATOM     42  O5  SGN C   3      33.282  46.668   7.8100  0.00  0.00     0.000 O
ATOM     43   O  SGN C   3      33.970  43.502   5.2450  0.00  0.00     0.000 O
ATOM     45  HD  SGN C   3      34.248  43.258   6.0280  0.00  0.00     0.000 HD
BRANCH 38 47
ATOM     45   N  SGN C   3      32.744  46.907   4.9410  0.00  0.00     0.000 N
ATOM     47  HD  SGN C   3      33.150  46.486   5.5800  0.00  0.00     0.000 HD
ATOM     47   S  SGN C   3      32.006  46.672   3.5530  0.00  0.00     0.000 S
ATOM     48   O  SGN C   3      32.827  45.950   2.6460  0.00  0.00     0.000 OA
ATOM     49   O  SGN C   3      30.734  46.102   3.8580  0.00  0.00     0.000 OA
ATOM     50   O  SGN C   3      31.878  48.038   3.0490  0.00  0.00     0.000 OA
ENDBRANCH 38 47
BRANCH 41 51
ATOM     51   C  SGN C   3      34.397  45.692   9.6600  0.00  0.00     0.000 C
ATOM     52   O  SGN C   3      33.790  44.425  13.1100  0.00  0.00     0.000 OA
ATOM     53   O  SGN C   3      35.859  44.886  11.9980  0.00  0.00     0.000 OA
ATOM     54   O  SGN C   3      34.316  46.661  12.4810  0.00  0.00     0.000 OA
ATOM     55   O  SGN C   3      33.850  44.976  10.7450  0.00  0.00     0.000 O
ATOM     56   S  SGN C   3      34.517  45.266  12.2210  0.00  0.00     0.000 S
ENDBRANCH 41 51
BRANCH 37 57
ATOM     57  O4  IDS C   4      31.182  46.082   7.2610  0.00  0.00     0.000 O
BRANCH 57 61
ATOM     58  C1  IDS C   4      27.457  46.396   7.9640  0.00  0.00     0.000 C
ATOM     59  C2  IDS C   4      27.964  46.762   6.6050  0.00  0.00     0.000 C
ATOM     60  C3  IDS C   4      29.296  47.514   6.6530  0.00  0.00     0.000 C
ATOM     61  C4  IDS C   4      30.276  47.095   7.7400  0.00  0.00     0.000 C
ATOM     62  C5  IDS C   4      29.529  46.615   8.9900  0.00  0.00     0.000 C
ATOM     63  O5  IDS C   4      28.482  45.713   8.6640  0.00  0.00     0.000 O
ATOM     64   O  IDS C   4      28.950  48.870   6.8650  0.00  0.00     0.000 O
ATOM     66  HD  IDS C   4      29.216  49.133   7.6460  0.00  0.00     0.000 HD
BRANCH 59 66
ATOM     66   O  IDS C   4      28.190  45.566   5.7710  0.00  0.00     0.000 O
ATOM     67   S  IDS C   4      27.213  45.370   4.5300  0.00  0.00     0.000 S
ATOM     68   O  IDS C   4      27.527  46.497   3.6840  0.00  0.00     0.000 OA
ATOM     69   O  IDS C   4      27.564  44.076   3.9790  0.00  0.00     0.000 OA
ATOM     70   O  IDS C   4      25.852  45.444   5.0380  0.00  0.00     0.000 OA
ENDBRANCH 59 66
BRANCH 62 71
ATOM     71   C  IDS C   4      30.421  45.871   9.9660  0.00  0.00     0.000 C
ATOM     72   O  IDS C   4      31.153  46.487  10.7160  0.00  0.00     0.000 OA
ATOM     73   O  IDS C   4      30.458  44.625   9.9060  0.00  0.00     0.000 OA
ENDBRANCH 62 71
BRANCH 58 74
ATOM     74  O4  SGN C   5      26.757  47.379   8.5990  0.00  0.00     0.000 O
BRANCH 74 78
ATOM     75  C1  SGN C   5      23.675  48.207  11.2930  0.00  0.00     0.000 C
ATOM     76  C2  SGN C   5      24.671  47.113  11.7220  0.00  0.00     0.000 C
ATOM     77  C3  SGN C   5      25.923  47.142  10.8350  0.00  0.00     0.000 C
ATOM     78  C4  SGN C   5      25.561  47.197   9.3570  0.00  0.00     0.000 C
ATOM     79  C5  SGN C   5      24.593  48.346   9.1140  0.00  0.00     0.000 C
ATOM     80  O5  SGN C   5      23.391  48.142   9.9020  0.00  0.00     0.000 O
ATOM     81   O  SGN C   5      26.712  45.990  11.1130  0.00  0.00     0.000 O
ATOM     83  HD  SGN C   5      26.785  45.673  11.9160  0.00  0.00     0.000 HD
BRANCH 76 85
ATOM     83   N  SGN C   5      24.082  46.491  12.9140  0.00  0.00     0.000 N
ATOM     85  HD  SGN C   5      23.757  46.526  13.7160  0.00  0.00     0.000 HD
ATOM     85   S  SGN C   5      24.375  46.783  14.4710  0.00  0.00     0.000 S
ATOM     86   O  SGN C   5      23.541  45.977  15.2930  0.00  0.00     0.000 OA
ATOM     87   O  SGN C   5      25.776  46.668  14.6620  0.00  0.00     0.000 OA
ATOM     88   O  SGN C   5      23.886  48.229  14.4630  0.00  0.00     0.000 OA
ENDBRANCH 76 85
BRANCH 79 89
ATOM     89   C  SGN C   5      24.190  48.499   7.6610  0.00  0.00     0.000 C
ATOM     90   O  SGN C   5      23.001  49.321   7.5660  0.00  0.00     0.000 O
ATOM     91   S  SGN C   5      22.850  50.221   6.2460  0.00  0.00     0.000 S
ATOM     92   O  SGN C   5      24.072  50.973   6.1250  0.00  0.00     0.000 OA
ATOM     93   O  SGN C   5      22.646  49.320   5.1410  0.00  0.00     0.000 OA
ATOM     94   O  SGN C   5      21.702  51.037   6.5320  0.00  0.00     0.000 OA
ENDBRANCH 79 89
BRANCH 75 95
ATOM     95  O4  BDP C   6      24.280  49.397  11.5830  0.00  0.00     0.000 O
BRANCH 95 99
ATOM     96  C1  BDP C   6      21.936  52.661  13.0970  0.00  0.00     0.000 C
ATOM     97  C2  BDP C   6      21.225  51.468  12.5210  0.00  0.00     0.000 C
ATOM     98  C3  BDP C   6      22.107  50.220  12.3660  0.00  0.00     0.000 C
ATOM     99  C4  BDP C   6      23.425  50.556  11.6850  0.00  0.00     0.000 C
ATOM    100  C5  BDP C   6      24.042  51.773  12.4120  0.00  0.00     0.000 C
ATOM    101  O5  BDP C   6      23.055  52.803  12.2420  0.00  0.00     0.000 O
BRANCH 100 102
ATOM    102   C  BDP C   6      25.322  52.246  11.7700  0.00  0.00     0.000 C
ATOM    103   O  BDP C   6      25.330  53.017  10.7990  0.00  0.00     0.000 OA
ATOM    104   O  BDP C   6      26.379  51.840  12.2660  0.00  0.00     0.000 OA
ENDBRANCH 100 102
ENDBRANCH 95 99
ENDBRANCH 75 95
ENDBRANCH 74 78
ENDBRANCH 58 74
ENDBRANCH 57 61
ENDBRANCH 37 57
ENDBRANCH 36 40
ENDBRANCH 23 36
ENDBRANCH 22 26
ENDBRANCH 1 22
TORSDOF 20
ENDMDL
MODEL 39
REMARK VINA RESULT:      -3.3     12.998     20.378
ROOT
ATOM      1  C1  NGY C   1      11.413  48.146  32.1730  0.00  0.00     0.000 C
ATOM      2  C2  NGY C   1      10.084  48.399  32.8710  0.00  0.00     0.000 C
ATOM      3  C3  NGY C   1       9.281  49.452  32.1130  0.00  0.00     0.000 C
ATOM      4  C4  NGY C   1      10.145  50.689  31.9590  0.00  0.00     0.000 C
ATOM      5  C5  NGY C   1      11.400  50.316  31.1750  0.00  0.00     0.000 C
ATOM      6  O5  NGY C   1      12.141  49.333  31.9440  0.00  0.00     0.000 O
ATOM      7   O  NGY C   1       8.081  49.723  32.8220  0.00  0.00     0.000 O
ATOM      9  HD  NGY C   1       7.828  49.782  33.6480  0.00  0.00     0.000 HD
ATOM      9   O  NGY C   1       9.439  51.722  31.2880  0.00  0.00     0.000 O
ATOM     11  HD  NGY C   1       9.186  51.781  32.1140  0.00  0.00     0.000 HD
ENDROOT
BRANCH 2 13
ATOM     11   N  NGY C   1       8.896  47.605  33.0780  0.00  0.00     0.000 N
ATOM     13  HD  NGY C   1       9.133  47.195  33.8030  0.00  0.00     0.000 HD
ATOM     13   C  NGY C   1       8.784  46.773  34.1120  0.00  0.00     0.000 C
ATOM     14   O  NGY C   1       9.743  46.541  34.8500  0.00  0.00     0.000 OA
ATOM     15   C  NGY C   1       7.435  46.162  34.3410  0.00  0.00     0.000 C
ENDBRANCH 2 13
BRANCH 5 16
ATOM     16   C  NGY C   1      12.355  51.441  30.9320  0.00  0.00     0.000 C
ATOM     17   O  NGY C   1      12.667  53.208  27.7320  0.00  0.00     0.000 OA
ATOM     18   O  NGY C   1      12.363  51.743  29.5340  0.00  0.00     0.000 O
ATOM     19   S  NGY C   1      12.941  53.151  29.1450  0.00  0.00     0.000 S
ATOM     20   O  NGY C   1      14.352  53.125  29.4290  0.00  0.00     0.000 OA
ATOM     21   O  NGY C   1      12.199  54.091  29.9700  0.00  0.00     0.000 OA
ENDBRANCH 5 16
BRANCH 1 22
ATOM     22  O4  BDP C   2      11.182  47.451  31.0390  0.00  0.00     0.000 O
BRANCH 22 26
ATOM     23  C1  BDP C   2      12.320  44.611  28.2810  0.00  0.00     0.000 C
ATOM     24  C2  BDP C   2      12.468  44.207  29.7280  0.00  0.00     0.000 C
ATOM     25  C3  BDP C   2      11.693  45.159  30.6010  0.00  0.00     0.000 C
ATOM     26  C4  BDP C   2      12.100  46.599  30.3040  0.00  0.00     0.000 C
ATOM     27  C5  BDP C   2      12.082  46.841  28.8000  0.00  0.00     0.000 C
ATOM     28  O5  BDP C   2      12.931  45.916  28.0730  0.00  0.00     0.000 O
ATOM     29   O  BDP C   2      11.873  42.939  30.0030  0.00  0.00     0.000 O
ATOM     31  HD  BDP C   2      11.494  42.848  30.7760  0.00  0.00     0.000 HD
ATOM     31   O  BDP C   2      12.005  44.831  31.9490  0.00  0.00     0.000 O
ATOM     33  HD  BDP C   2      11.627  44.740  32.7230  0.00  0.00     0.000 HD
BRANCH 27 33
ATOM     33   C  BDP C   2      12.570  48.222  28.4320  0.00  0.00     0.000 C
ATOM     34   O  BDP C   2      11.942  48.960  27.6370  0.00  0.00     0.000 OA
ATOM     35   O  BDP C   2      13.628  48.607  28.9020  0.00  0.00     0.000 OA
ENDBRANCH 27 33
BRANCH 23 36
ATOM     36  O4  SGN C   3      12.864  43.758  27.3820  0.00  0.00     0.000 O
BRANCH 36 40
ATOM     37  C1  SGN C   3      12.419  42.058  23.5950  0.00  0.00     0.000 C
ATOM     38  C2  SGN C   3      13.211  43.372  23.7000  0.00  0.00     0.000 C
ATOM     39  C3  SGN C   3      13.650  43.615  25.1360  0.00  0.00     0.000 C
ATOM     40  C4  SGN C   3      12.427  43.606  26.0280  0.00  0.00     0.000 C
ATOM     41  C5  SGN C   3      11.700  42.292  25.8440  0.00  0.00     0.000 C
ATOM     42  O5  SGN C   3      11.306  42.144  24.4710  0.00  0.00     0.000 O
ATOM     43   O  SGN C   3      14.327  44.863  25.2140  0.00  0.00     0.000 O
ATOM     45  HD  SGN C   3      13.961  44.679  25.9770  0.00  0.00     0.000 HD
BRANCH 38 47
ATOM     45   N  SGN C   3      12.827  43.367  22.2770  0.00  0.00     0.000 N
ATOM     47  HD  SGN C   3      12.584  43.404  23.1080  0.00  0.00     0.000 HD
ATOM     47   S  SGN C   3      14.071  43.621  21.3210  0.00  0.00     0.000 S
ATOM     48   O  SGN C   3      14.592  44.932  21.4860  0.00  0.00     0.000 OA
ATOM     49   O  SGN C   3      14.977  42.540  21.5340  0.00  0.00     0.000 OA
ATOM     50   O  SGN C   3      13.450  43.550  20.0000  0.00  0.00     0.000 OA
ENDBRANCH 38 47
BRANCH 41 51
ATOM     51   C  SGN C   3      10.460  42.153  26.6850  0.00  0.00     0.000 C
ATOM     52   O  SGN C   3       9.917  39.813  29.5330  0.00  0.00     0.000 OA
ATOM     53   O  SGN C   3       9.082  42.032  29.2030  0.00  0.00     0.000 OA
ATOM     54   O  SGN C   3       8.416  40.251  27.7370  0.00  0.00     0.000 OA
ATOM     55   O  SGN C   3      10.694  41.187  27.6860  0.00  0.00     0.000 O
ATOM     56   S  SGN C   3       9.405  40.783  28.6260  0.00  0.00     0.000 S
ENDBRANCH 41 51
BRANCH 37 57
ATOM     57  O4  IDS C   4      13.124  40.945  23.9130  0.00  0.00     0.000 O
BRANCH 57 61
ATOM     58  C1  IDS C   4      14.597  37.528  23.1210  0.00  0.00     0.000 C
ATOM     59  C2  IDS C   4      14.762  38.630  22.1230  0.00  0.00     0.000 C
ATOM     60  C3  IDS C   4      13.507  39.495  21.9830  0.00  0.00     0.000 C
ATOM     61  C4  IDS C   4      12.701  39.737  23.2520  0.00  0.00     0.000 C
ATOM     62  C5  IDS C   4      12.799  38.533  24.1960  0.00  0.00     0.000 C
ATOM     63  O5  IDS C   4      14.138  38.085  24.3420  0.00  0.00     0.000 O
ATOM     64   O  IDS C   4      12.684  38.809  21.0570  0.00  0.00     0.000 O
ATOM     66  HD  IDS C   4      11.969  38.515  21.4470  0.00  0.00     0.000 HD
BRANCH 59 66
ATOM     66   O  IDS C   4      15.858  39.543  22.5000  0.00  0.00     0.000 O
ATOM     67   S  IDS C   4      17.181  39.466  21.6180  0.00  0.00     0.000 S
ATOM     68   O  IDS C   4      16.737  39.911  20.3190  0.00  0.00     0.000 OA
ATOM     69   O  IDS C   4      18.121  40.351  22.2780  0.00  0.00     0.000 OA
ATOM     70   O  IDS C   4      17.602  38.074  21.5940  0.00  0.00     0.000 OA
ENDBRANCH 59 66
BRANCH 62 71
ATOM     71   C  IDS C   4      12.315  38.838  25.6000  0.00  0.00     0.000 C
ATOM     72   O  IDS C   4      13.114  39.098  26.4790  0.00  0.00     0.000 OA
ATOM     73   O  IDS C   4      11.099  38.713  25.8500  0.00  0.00     0.000 OA
ENDBRANCH 62 71
BRANCH 58 74
ATOM     74  O4  SGN C   5      14.002  36.400  22.6390  0.00  0.00     0.000 O
BRANCH 74 78
ATOM     75  C1  SGN C   5      14.119  32.267  23.2300  0.00  0.00     0.000 C
ATOM     76  C2  SGN C   5      12.724  32.918  23.2800  0.00  0.00     0.000 C
ATOM     77  C3  SGN C   5      12.770  34.345  22.7180  0.00  0.00     0.000 C
ATOM     78  C4  SGN C   5      13.920  35.145  23.3140  0.00  0.00     0.000 C
ATOM     79  C5  SGN C   5      15.217  34.365  23.1540  0.00  0.00     0.000 C
ATOM     80  O5  SGN C   5      15.104  33.090  23.8410  0.00  0.00     0.000 O
ATOM     81   O  SGN C   5      11.526  34.985  22.9810  0.00  0.00     0.000 O
ATOM     83  HD  SGN C   5      10.776  34.554  22.9440  0.00  0.00     0.000 HD
BRANCH 76 85
ATOM     83   N  SGN C   5      11.807  31.882  23.7740  0.00  0.00     0.000 N
ATOM     85  HD  SGN C   5      11.449  31.094  23.7380  0.00  0.00     0.000 HD
ATOM     85   S  SGN C   5      10.865  30.871  22.9460  0.00  0.00     0.000 S
ATOM     86   O  SGN C   5      10.173  30.000  23.8310  0.00  0.00     0.000 OA
ATOM     87   O  SGN C   5      10.078  31.657  22.0660  0.00  0.00     0.000 OA
ATOM     88   O  SGN C   5      11.999  30.130  22.2400  0.00  0.00     0.000 OA
ENDBRANCH 76 85
BRANCH 79 89
ATOM     89   C  SGN C   5      16.430  35.093  23.6980  0.00  0.00     0.000 C
ATOM     90   O  SGN C   5      16.264  35.328  25.1180  0.00  0.00     0.000 O
ATOM     91   S  SGN C   5      17.601  35.345  26.0060  0.00  0.00     0.000 S
ATOM     92   O  SGN C   5      18.301  34.123  25.7100  0.00  0.00     0.000 OA
ATOM     93   O  SGN C   5      18.349  36.515  25.6240  0.00  0.00     0.000 OA
ATOM     94   O  SGN C   5      17.102  35.406  27.3530  0.00  0.00     0.000 OA
ENDBRANCH 79 89
BRANCH 75 95
ATOM     95  O4  BDP C   6      14.409  32.110  21.9040  0.00  0.00     0.000 O
BRANCH 95 99
ATOM     96  C1  BDP C   6      17.446  29.576  20.2290  0.00  0.00     0.000 C
ATOM     97  C2  BDP C   6      17.060  29.386  21.6690  0.00  0.00     0.000 C
ATOM     98  C3  BDP C   6      15.734  30.052  22.0640  0.00  0.00     0.000 C
ATOM     99  C4  BDP C   6      15.675  31.494  21.5830  0.00  0.00     0.000 C
ATOM    100  C5  BDP C   6      16.061  31.515  20.0850  0.00  0.00     0.000 C
ATOM    101  O5  BDP C   6      17.395  30.982  20.0740  0.00  0.00     0.000 O
BRANCH 100 102
ATOM    102   C  BDP C   6      16.113  32.911  19.5170  0.00  0.00     0.000 C
ATOM    103   O  BDP C   6      15.352  33.810  19.9010  0.00  0.00     0.000 OA
ATOM    104   O  BDP C   6      16.967  33.129  18.6500  0.00  0.00     0.000 OA
ENDBRANCH 100 102
ENDBRANCH 95 99
ENDBRANCH 75 95
ENDBRANCH 74 78
ENDBRANCH 58 74
ENDBRANCH 57 61
ENDBRANCH 37 57
ENDBRANCH 36 40
ENDBRANCH 23 36
ENDBRANCH 22 26
ENDBRANCH 1 22
TORSDOF 20
ENDMDL
MODEL 40
REMARK VINA RESULT:      -3.2     30.999     39.042
ROOT
ATOM      1  C1  NGY C   1      30.548  12.356  66.7160  0.00  0.00     0.000 C
ATOM      2  C2  NGY C   1      31.318  12.163  68.0150  0.00  0.00     0.000 C
ATOM      3  C3  NGY C   1      30.873  10.879  68.7080  0.00  0.00     0.000 C
ATOM      4  C4  NGY C   1      29.367  10.930  68.8830  0.00  0.00     0.000 C
ATOM      5  C5  NGY C   1      28.717  11.041  67.5070  0.00  0.00     0.000 C
ATOM      6  O5  NGY C   1      29.150  12.285  66.8980  0.00  0.00     0.000 O
ATOM      7   O  NGY C   1      31.551  10.759  69.9500  0.00  0.00     0.000 O
ATOM      9  HD  NGY C   1      31.823  11.287  70.5800  0.00  0.00     0.000 HD
ATOM      9   O  NGY C   1      28.894   9.772  69.5550  0.00  0.00     0.000 O
ATOM     11  HD  NGY C   1      29.166  10.299  70.1860  0.00  0.00     0.000 HD
ENDROOT
BRANCH 2 13
ATOM     11   N  NGY C   1      32.679  12.403  67.5970  0.00  0.00     0.000 N
ATOM     13  HD  NGY C   1      33.004  12.678  68.3500  0.00  0.00     0.000 HD
ATOM     13   C  NGY C   1      33.600  12.857  68.4450  0.00  0.00     0.000 C
ATOM     14   O  NGY C   1      33.294  13.227  69.5800  0.00  0.00     0.000 OA
ATOM     15   C  NGY C   1      35.017  12.868  67.9560  0.00  0.00     0.000 C
ENDBRANCH 2 13
BRANCH 5 16
ATOM     16   C  NGY C   1      27.223  11.092  67.5120  0.00  0.00     0.000 C
ATOM     17   O  NGY C   1      25.274  13.930  68.7780  0.00  0.00     0.000 OA
ATOM     18   O  NGY C   1      26.804  12.233  68.2660  0.00  0.00     0.000 O
ATOM     19   S  NGY C   1      25.327  12.707  68.0180  0.00  0.00     0.000 S
ATOM     20   O  NGY C   1      24.459  11.691  68.5530  0.00  0.00     0.000 OA
ATOM     21   O  NGY C   1      25.227  12.856  66.5760  0.00  0.00     0.000 OA
ENDBRANCH 5 16
BRANCH 1 22
ATOM     22  O4  BDP C   2      30.999  11.466  65.8070  0.00  0.00     0.000 O
BRANCH 22 26
ATOM     23  C1  BDP C   2      31.866  10.413  61.9210  0.00  0.00     0.000 C
ATOM     24  C2  BDP C   2      32.446  11.729  62.3830  0.00  0.00     0.000 C
ATOM     25  C3  BDP C   2      32.372  11.815  63.8850  0.00  0.00     0.000 C
ATOM     26  C4  BDP C   2      30.946  11.554  64.3590  0.00  0.00     0.000 C
ATOM     27  C5  BDP C   2      30.402  10.297  63.6940  0.00  0.00     0.000 C
ATOM     28  O5  BDP C   2      30.448  10.364  62.2450  0.00  0.00     0.000 O
ATOM     29   O  BDP C   2      33.844  11.834  62.1080  0.00  0.00     0.000 O
ATOM     31  HD  BDP C   2      34.323  12.253  62.6950  0.00  0.00     0.000 HD
ATOM     31   O  BDP C   2      32.773  13.131  64.2440  0.00  0.00     0.000 O
ATOM     33  HD  BDP C   2      33.253  13.551  64.8300  0.00  0.00     0.000 HD
BRANCH 27 33
ATOM     33   C  BDP C   2      28.957  10.036  64.0470  0.00  0.00     0.000 C
ATOM     34   O  BDP C   2      28.559   8.911  64.4320  0.00  0.00     0.000 OA
ATOM     35   O  BDP C   2      28.155  10.945  63.9160  0.00  0.00     0.000 OA
ENDBRANCH 27 33
BRANCH 23 36
ATOM     36  O4  SGN C   3      31.992  10.157  60.5980  0.00  0.00     0.000 O
BRANCH 36 40
ATOM     37  C1  SGN C   3      32.928   7.263  57.7380  0.00  0.00     0.000 C
ATOM     38  C2  SGN C   3      31.491   7.288  58.2860  0.00  0.00     0.000 C
ATOM     39  C3  SGN C   3      31.200   8.623  58.9540  0.00  0.00     0.000 C
ATOM     40  C4  SGN C   3      32.233   8.865  60.0330  0.00  0.00     0.000 C
ATOM     41  C5  SGN C   3      33.611   8.800  59.4120  0.00  0.00     0.000 C
ATOM     42  O5  SGN C   3      33.815   7.509  58.8180  0.00  0.00     0.000 O
ATOM     43   O  SGN C   3      29.888   8.596  59.5020  0.00  0.00     0.000 O
ATOM     45  HD  SGN C   3      30.384   9.146  59.9520  0.00  0.00     0.000 HD
BRANCH 38 47
ATOM     45   N  SGN C   3      31.628   5.945  57.6940  0.00  0.00     0.000 N
ATOM     47  HD  SGN C   3      31.901   6.528  58.2740  0.00  0.00     0.000 HD
ATOM     47   S  SGN C   3      30.369   5.552  56.8060  0.00  0.00     0.000 S
ATOM     48   O  SGN C   3      29.199   5.412  57.5990  0.00  0.00     0.000 OA
ATOM     49   O  SGN C   3      30.311   6.498  55.7400  0.00  0.00     0.000 OA
ATOM     50   O  SGN C   3      30.745   4.223  56.3280  0.00  0.00     0.000 OA
ENDBRANCH 38 47
BRANCH 41 51
ATOM     51   C  SGN C   3      34.736   9.030  60.3850  0.00  0.00     0.000 C
ATOM     52   O  SGN C   3      35.227   7.391  63.6940  0.00  0.00     0.000 OA
ATOM     53   O  SGN C   3      36.855   8.123  62.1000  0.00  0.00     0.000 OA
ATOM     54   O  SGN C   3      35.434   9.712  63.2040  0.00  0.00     0.000 OA
ATOM     55   O  SGN C   3      34.566   8.170  61.4900  0.00  0.00     0.000 O
ATOM     56   S  SGN C   3      35.619   8.369  62.7390  0.00  0.00     0.000 S
ENDBRANCH 41 51
BRANCH 37 57
ATOM     57  O4  IDS C   4      33.179   8.174  56.7670  0.00  0.00     0.000 O
BRANCH 57 61
ATOM     58  C1  IDS C   4      34.405   8.952  53.2510  0.00  0.00     0.000 C
ATOM     59  C2  IDS C   4      33.664   7.674  53.4870  0.00  0.00     0.000 C
ATOM     60  C3  IDS C   4      34.050   7.001  54.8070  0.00  0.00     0.000 C
ATOM     61  C4  IDS C   4      34.358   7.925  55.9770  0.00  0.00     0.000 C
ATOM     62  C5  IDS C   4      34.975   9.239  55.4850  0.00  0.00     0.000 C
ATOM     63  O5  IDS C   4      34.253   9.783  54.3890  0.00  0.00     0.000 O
ATOM     64   O  IDS C   4      35.212   6.248  54.5160  0.00  0.00     0.000 O
ATOM     66  HD  IDS C   4      35.898   6.577  54.9300  0.00  0.00     0.000 HD
BRANCH 59 66
ATOM     66   O  IDS C   4      32.206   7.894  53.5400  0.00  0.00     0.000 O
ATOM     67   S  IDS C   4      31.337   7.171  52.4210  0.00  0.00     0.000 S
ATOM     68   O  IDS C   4      31.528   5.770  52.7110  0.00  0.00     0.000 OA
ATOM     69   O  IDS C   4      29.987   7.659  52.6230  0.00  0.00     0.000 OA
ATOM     70   O  IDS C   4      31.907   7.534  51.1320  0.00  0.00     0.000 OA
ENDBRANCH 59 66
BRANCH 62 71
ATOM     71   C  IDS C   4      34.988  10.324  56.5450  0.00  0.00     0.000 C
ATOM     72   O  IDS C   4      35.889  10.370  57.3600  0.00  0.00     0.000 OA
ATOM     73   O  IDS C   4      34.008  11.092  56.6200  0.00  0.00     0.000 OA
ENDBRANCH 62 71
BRANCH 58 74
ATOM     74  O4  SGN C   5      35.641   8.805  52.6930  0.00  0.00     0.000 O
BRANCH 74 78
ATOM     75  C1  SGN C   5      38.533  10.462  50.1760  0.00  0.00     0.000 C
ATOM     76  C2  SGN C   5      38.516  10.987  51.6240  0.00  0.00     0.000 C
ATOM     77  C3  SGN C   5      37.665  10.079  52.5210  0.00  0.00     0.000 C
ATOM     78  C4  SGN C   5      36.314   9.773  51.8880  0.00  0.00     0.000 C
ATOM     79  C5  SGN C   5      36.523   9.243  50.4780  0.00  0.00     0.000 C
ATOM     80  O5  SGN C   5      37.218  10.240  49.6830  0.00  0.00     0.000 O
ATOM     81   O  SGN C   5      37.493  10.710  53.7860  0.00  0.00     0.000 O
ATOM     83  HD  SGN C   5      38.126  11.172  54.1530  0.00  0.00     0.000 HD
BRANCH 76 85
ATOM     83   N  SGN C   5      39.368  12.139  51.9480  0.00  0.00     0.000 N
ATOM     85  HD  SGN C   5      40.075  12.625  51.8340  0.00  0.00     0.000 HD
ATOM     85   S  SGN C   5      40.972  12.223  52.0630  0.00  0.00     0.000 S
ATOM     86   O  SGN C   5      41.380  13.554  52.3550  0.00  0.00     0.000 OA
ATOM     87   O  SGN C   5      41.381  11.209  52.9680  0.00  0.00     0.000 OA
ATOM     88   O  SGN C   5      41.262  11.880  50.6040  0.00  0.00     0.000 OA
ENDBRANCH 76 85
BRANCH 79 89
ATOM     89   C  SGN C   5      35.232   8.885  49.7700  0.00  0.00     0.000 C
ATOM     90   O  SGN C   5      34.513  10.093  49.4210  0.00  0.00     0.000 O
ATOM     91   S  SGN C   5      33.618  10.040  48.0900  0.00  0.00     0.000 S
ATOM     92   O  SGN C   5      34.482   9.569  47.0380  0.00  0.00     0.000 OA
ATOM     93   O  SGN C   5      32.525   9.140  48.3500  0.00  0.00     0.000 OA
ATOM     94   O  SGN C   5      33.201  11.405  47.9180  0.00  0.00     0.000 OA
ENDBRANCH 79 89
BRANCH 75 95
ATOM     95  O4  BDP C   6      39.212   9.277  50.2180  0.00  0.00     0.000 O
BRANCH 95 99
ATOM     96  C1  BDP C   6      41.265   7.397  46.9470  0.00  0.00     0.000 C
ATOM     97  C2  BDP C   6      40.828   8.828  46.7990  0.00  0.00     0.000 C
ATOM     98  C3  BDP C   6      40.461   9.518  48.1200  0.00  0.00     0.000 C
ATOM     99  C4  BDP C   6      39.520   8.657  48.9510  0.00  0.00     0.000 C
ATOM    100  C5  BDP C   6      40.125   7.236  49.0380  0.00  0.00     0.000 C
ATOM    101  O5  BDP C   6      40.193   6.815  47.6660  0.00  0.00     0.000 O
BRANCH 100 102
ATOM    102   C  BDP C   6      39.234   6.270  49.7760  0.00  0.00     0.000 C
ATOM    103   O  BDP C   6      38.165   5.859  49.3020  0.00  0.00     0.000 OA
ATOM    104   O  BDP C   6      39.624   5.887  50.8860  0.00  0.00     0.000 OA
ENDBRANCH 100 102
ENDBRANCH 95 99
ENDBRANCH 75 95
ENDBRANCH 74 78
ENDBRANCH 58 74
ENDBRANCH 57 61
ENDBRANCH 37 57
ENDBRANCH 36 40
ENDBRANCH 23 36
ENDBRANCH 22 26
ENDBRANCH 1 22
TORSDOF 20
ENDMDL
MODEL 41
REMARK VINA RESULT:      -3.2      8.145     12.470
ROOT
ATOM      1  C1  NGY C   1      30.706  35.736  27.2000  0.00  0.00     0.000 C
ATOM      2  C2  NGY C   1      30.971  37.220  27.4100  0.00  0.00     0.000 C
ATOM      3  C3  NGY C   1      30.304  38.038  26.3080  0.00  0.00     0.000 C
ATOM      4  C4  NGY C   1      30.780  37.508  24.9690  0.00  0.00     0.000 C
ATOM      5  C5  NGY C   1      30.380  36.040  24.8530  0.00  0.00     0.000 C
ATOM      6  O5  NGY C   1      31.055  35.300  25.9030  0.00  0.00     0.000 O
ATOM      7   O  NGY C   1      30.626  39.410  26.4850  0.00  0.00     0.000 O
ATOM      9  HD  NGY C   1      31.308  39.876  26.7460  0.00  0.00     0.000 HD
ATOM      9   O  NGY C   1      30.218  38.253  23.8990  0.00  0.00     0.000 O
ATOM     11  HD  NGY C   1      30.899  38.719  24.1600  0.00  0.00     0.000 HD
ENDROOT
BRANCH 2 13
ATOM     11   N  NGY C   1      31.686  38.088  28.3160  0.00  0.00     0.000 N
ATOM     13  HD  NGY C   1      31.151  38.041  28.9960  0.00  0.00     0.000 HD
ATOM     13   C  NGY C   1      31.233  38.341  29.5430  0.00  0.00     0.000 C
ATOM     14   O  NGY C   1      30.117  37.962  29.9010  0.00  0.00     0.000 OA
ATOM     15   C  NGY C   1      32.157  39.081  30.4620  0.00  0.00     0.000 C
ENDBRANCH 2 13
BRANCH 5 16
ATOM     16   C  NGY C   1      30.774  35.374  23.5730  0.00  0.00     0.000 C
ATOM     17   O  NGY C   1      30.437  31.774  22.9480  0.00  0.00     0.000 OA
ATOM     18   O  NGY C   1      30.712  33.956  23.7540  0.00  0.00     0.000 O
ATOM     19   S  NGY C   1      30.650  33.104  22.4360  0.00  0.00     0.000 S
ATOM     20   O  NGY C   1      31.925  33.242  21.7810  0.00  0.00     0.000 OA
ATOM     21   O  NGY C   1      29.546  33.675  21.6820  0.00  0.00     0.000 OA
ENDBRANCH 5 16
BRANCH 1 22
ATOM     22  O4  BDP C   2      29.416  35.478  27.5040  0.00  0.00     0.000 O
BRANCH 22 26
ATOM     23  C1  BDP C   2      26.564  32.930  29.0350  0.00  0.00     0.000 C
ATOM     24  C2  BDP C   2      27.881  32.952  29.7750  0.00  0.00     0.000 C
ATOM     25  C3  BDP C   2      28.678  34.158  29.3530  0.00  0.00     0.000 C
ATOM     26  C4  BDP C   2      28.809  34.201  27.8340  0.00  0.00     0.000 C
ATOM     27  C5  BDP C   2      27.443  33.995  27.1920  0.00  0.00     0.000 C
ATOM     28  O5  BDP C   2      26.808  32.759  27.6100  0.00  0.00     0.000 O
ATOM     29   O  BDP C   2      27.712  33.135  31.1810  0.00  0.00     0.000 O
ATOM     31  HD  BDP C   2      28.313  33.610  31.5850  0.00  0.00     0.000 HD
ATOM     31   O  BDP C   2      29.963  34.034  29.9510  0.00  0.00     0.000 O
ATOM     33  HD  BDP C   2      30.564  34.509  30.3550  0.00  0.00     0.000 HD
BRANCH 27 33
ATOM     33   C  BDP C   2      27.517  33.928  25.6860  0.00  0.00     0.000 C
ATOM     34   O  BDP C   2      27.071  34.846  24.9560  0.00  0.00     0.000 OA
ATOM     35   O  BDP C   2      27.997  32.932  25.1710  0.00  0.00     0.000 OA
ENDBRANCH 27 33
BRANCH 23 36
ATOM     36  O4  SGN C   3      25.698  31.965  29.4210  0.00  0.00     0.000 O
BRANCH 36 40
ATOM     37  C1  SGN C   3      21.713  31.027  30.2390  0.00  0.00     0.000 C
ATOM     38  C2  SGN C   3      22.107  31.252  28.7700  0.00  0.00     0.000 C
ATOM     39  C3  SGN C   3      23.615  31.146  28.6010  0.00  0.00     0.000 C
ATOM     40  C4  SGN C   3      24.283  32.132  29.5350  0.00  0.00     0.000 C
ATOM     41  C5  SGN C   3      23.822  31.853  30.9490  0.00  0.00     0.000 C
ATOM     42  O5  SGN C   3      22.395  31.988  31.0300  0.00  0.00     0.000 O
ATOM     43   O  SGN C   3      23.955  31.417  27.2470  0.00  0.00     0.000 O
ATOM     45  HD  SGN C   3      24.618  31.624  27.7640  0.00  0.00     0.000 HD
BRANCH 38 47
ATOM     45   N  SGN C   3      20.647  31.450  28.7430  0.00  0.00     0.000 N
ATOM     47  HD  SGN C   3      21.422  31.709  29.0290  0.00  0.00     0.000 HD
ATOM     47   S  SGN C   3      19.953  30.617  27.5790  0.00  0.00     0.000 S
ATOM     48   O  SGN C   3      20.343  31.092  26.2990  0.00  0.00     0.000 OA
ATOM     49   O  SGN C   3      20.205  29.241  27.8560  0.00  0.00     0.000 OA
ATOM     50   O  SGN C   3      18.544  30.956  27.7710  0.00  0.00     0.000 OA
ENDBRANCH 38 47
BRANCH 41 51
ATOM     51   C  SGN C   3      24.421  32.767  31.9830  0.00  0.00     0.000 C
ATOM     52   O  SGN C   3      24.180  36.482  32.1170  0.00  0.00     0.000 OA
ATOM     53   O  SGN C   3      24.264  34.895  33.9070  0.00  0.00     0.000 OA
ATOM     54   O  SGN C   3      26.138  35.165  32.4310  0.00  0.00     0.000 OA
ATOM     55   O  SGN C   3      24.047  34.095  31.6870  0.00  0.00     0.000 O
ATOM     56   S  SGN C   3      24.722  35.268  32.6230  0.00  0.00     0.000 S
ENDBRANCH 41 51
BRANCH 37 57
ATOM     57  O4  IDS C   4      22.009  29.795  30.7210  0.00  0.00     0.000 O
BRANCH 57 61
ATOM     58  C1  IDS C   4      21.089  26.384  32.1330  0.00  0.00     0.000 C
ATOM     59  C2  IDS C   4      20.375  26.873  30.9130  0.00  0.00     0.000 C
ATOM     60  C3  IDS C   4      20.042  28.366  30.9800  0.00  0.00     0.000 C
ATOM     61  C4  IDS C   4      21.064  29.260  31.6680  0.00  0.00     0.000 C
ATOM     62  C5  IDS C   4      21.782  28.502  32.7910  0.00  0.00     0.000 C
ATOM     63  O5  IDS C   4      22.212  27.217  32.3660  0.00  0.00     0.000 O
ATOM     64   O  IDS C   4      18.825  28.444  31.6980  0.00  0.00     0.000 O
ATOM     66  HD  IDS C   4      18.949  28.833  32.4620  0.00  0.00     0.000 HD
BRANCH 59 66
ATOM     66   O  IDS C   4      21.185  26.679  29.6960  0.00  0.00     0.000 O
ATOM     67   S  IDS C   4      20.686  25.560  28.6800  0.00  0.00     0.000 S
ATOM     68   O  IDS C   4      19.418  26.074  28.2220  0.00  0.00     0.000 OA
ATOM     69   O  IDS C   4      21.719  25.490  27.6650  0.00  0.00     0.000 OA
ATOM     70   O  IDS C   4      20.524  24.331  29.4400  0.00  0.00     0.000 OA
ENDBRANCH 59 66
BRANCH 62 71
ATOM     71   C  IDS C   4      23.030  29.210  33.2820  0.00  0.00     0.000 C
ATOM     72   O  IDS C   4      22.935  30.206  33.9730  0.00  0.00     0.000 OA
ATOM     73   O  IDS C   4      24.139  28.808  32.8760  0.00  0.00     0.000 OA
ENDBRANCH 62 71
BRANCH 58 74
ATOM     74  O4  SGN C   5      20.280  26.049  33.1780  0.00  0.00     0.000 O
BRANCH 74 78
ATOM     75  C1  SGN C   5      19.637  23.427  36.3650  0.00  0.00     0.000 C
ATOM     76  C2  SGN C   5      20.581  24.612  36.6440  0.00  0.00     0.000 C
ATOM     77  C3  SGN C   5      20.467  25.669  35.5380  0.00  0.00     0.000 C
ATOM     78  C4  SGN C   5      20.548  25.042  34.1530  0.00  0.00     0.000 C
ATOM     79  C5  SGN C   5      19.534  23.912  34.0480  0.00  0.00     0.000 C
ATOM     80  O5  SGN C   5      19.822  22.906  35.0550  0.00  0.00     0.000 O
ATOM     81   O  SGN C   5      21.502  26.632  35.7110  0.00  0.00     0.000 O
ATOM     83  HD  SGN C   5      21.758  26.887  36.4980  0.00  0.00     0.000 HD
BRANCH 76 85
ATOM     83   N  SGN C   5      20.015  24.705  37.9960  0.00  0.00     0.000 N
ATOM     85  HD  SGN C   5      19.988  25.038  38.7950  0.00  0.00     0.000 HD
ATOM     85   S  SGN C   5      20.767  24.862  39.4110  0.00  0.00     0.000 S
ATOM     86   O  SGN C   5      19.822  24.959  40.4690  0.00  0.00     0.000 OA
ATOM     87   O  SGN C   5      21.724  23.817  39.4950  0.00  0.00     0.000 OA
ATOM     88   O  SGN C   5      21.388  26.225  39.1180  0.00  0.00     0.000 OA
ENDBRANCH 76 85
BRANCH 79 89
ATOM     89   C  SGN C   5      19.520  23.237  32.6910  0.00  0.00     0.000 C
ATOM     90   O  SGN C   5      18.429  22.285  32.6290  0.00  0.00     0.000 O
ATOM     91   S  SGN C   5      17.756  22.054  31.1900  0.00  0.00     0.000 S
ATOM     92   O  SGN C   5      17.402  23.358  30.6930  0.00  0.00     0.000 OA
ATOM     93   O  SGN C   5      18.737  21.398  30.3640  0.00  0.00     0.000 OA
ATOM     94   O  SGN C   5      16.619  21.227  31.4870  0.00  0.00     0.000 OA
ENDBRANCH 79 89
BRANCH 75 95
ATOM     95  O4  BDP C   6      18.370  23.925  36.4860  0.00  0.00     0.000 O
BRANCH 95 99
ATOM     96  C1  BDP C   6      14.686  21.860  37.2670  0.00  0.00     0.000 C
ATOM     97  C2  BDP C   6      15.967  21.273  37.7910  0.00  0.00     0.000 C
ATOM     98  C3  BDP C   6      17.153  22.249  37.8010  0.00  0.00     0.000 C
ATOM     99  C4  BDP C   6      17.289  22.967  36.4660  0.00  0.00     0.000 C
ATOM    100  C5  BDP C   6      15.903  23.540  36.0870  0.00  0.00     0.000 C
ATOM    101  O5  BDP C   6      15.068  22.373  36.0050  0.00  0.00     0.000 O
BRANCH 100 102
ATOM    102   C  BDP C   6      15.900  24.210  34.7370  0.00  0.00     0.000 C
ATOM    103   O  BDP C   6      16.201  25.403  34.5890  0.00  0.00     0.000 OA
ATOM    104   O  BDP C   6      15.593  23.508  33.7660  0.00  0.00     0.000 OA
ENDBRANCH 100 102
ENDBRANCH 95 99
ENDBRANCH 75 95
ENDBRANCH 74 78
ENDBRANCH 58 74
ENDBRANCH 57 61
ENDBRANCH 37 57
ENDBRANCH 36 40
ENDBRANCH 23 36
ENDBRANCH 22 26
ENDBRANCH 1 22
TORSDOF 20
ENDMDL
MODEL 42
REMARK VINA RESULT:      -3.1     28.147     38.447
ROOT
ATOM      1  C1  NGY C   1      29.709  14.167  69.4490  0.00  0.00     0.000 C
ATOM      2  C2  NGY C   1      29.996  13.170  70.5630  0.00  0.00     0.000 C
ATOM      3  C3  NGY C   1      28.691  12.677  71.1800  0.00  0.00     0.000 C
ATOM      4  C4  NGY C   1      27.888  13.886  71.6240  0.00  0.00     0.000 C
ATOM      5  C5  NGY C   1      27.600  14.756  70.4040  0.00  0.00     0.000 C
ATOM      6  O5  NGY C   1      28.866  15.220  69.8670  0.00  0.00     0.000 O
ATOM      7   O  NGY C   1      28.986  11.806  72.2630  0.00  0.00     0.000 O
ATOM      9  HD  NGY C   1      29.582  11.747  72.8890  0.00  0.00     0.000 HD
ATOM      9   O  NGY C   1      26.672  13.489  72.2400  0.00  0.00     0.000 O
ATOM     11  HD  NGY C   1      27.267  13.430  72.8660  0.00  0.00     0.000 HD
ENDROOT
BRANCH 2 13
ATOM     11   N  NGY C   1      30.949  12.282  69.9400  0.00  0.00     0.000 N
ATOM     13  HD  NGY C   1      31.374  12.023  70.6490  0.00  0.00     0.000 HD
ATOM     13   C  NGY C   1      31.858  11.621  70.6550  0.00  0.00     0.000 C
ATOM     14   O  NGY C   1      32.015  11.851  71.8550  0.00  0.00     0.000 OA
ATOM     15   C  NGY C   1      32.651  10.575  69.9330  0.00  0.00     0.000 C
ENDBRANCH 2 13
BRANCH 5 16
ATOM     16   C  NGY C   1      26.802  15.991  70.6790  0.00  0.00     0.000 C
ATOM     17   O  NGY C   1      27.538  19.275  69.2200  0.00  0.00     0.000 OA
ATOM     18   O  NGY C   1      27.490  17.116  70.1270  0.00  0.00     0.000 O
ATOM     19   S  NGY C   1      26.622  18.408  69.9170  0.00  0.00     0.000 S
ATOM     20   O  NGY C   1      26.281  18.908  71.2240  0.00  0.00     0.000 OA
ATOM     21   O  NGY C   1      25.472  17.957  69.1500  0.00  0.00     0.000 OA
ENDBRANCH 5 16
BRANCH 1 22
ATOM     22  O4  BDP C   2      29.218  13.500  68.3840  0.00  0.00     0.000 O
BRANCH 22 26
ATOM     23  C1  BDP C   2      28.734  13.025  64.3220  0.00  0.00     0.000 C
ATOM     24  C2  BDP C   2      30.163  13.028  64.8100  0.00  0.00     0.000 C
ATOM     25  C3  BDP C   2      30.188  12.839  66.3040  0.00  0.00     0.000 C
ATOM     26  C4  BDP C   2      29.288  13.868  66.9810  0.00  0.00     0.000 C
ATOM     27  C5  BDP C   2      27.930  13.899  66.2930  0.00  0.00     0.000 C
ATOM     28  O5  BDP C   2      28.027  14.173  64.8720  0.00  0.00     0.000 O
ATOM     29   O  BDP C   2      30.909  11.915  64.3170  0.00  0.00     0.000 O
ATOM     31  HD  BDP C   2      31.496  11.574  64.8550  0.00  0.00     0.000 HD
ATOM     31   O  BDP C   2      31.535  13.018  66.7210  0.00  0.00     0.000 O
ATOM     33  HD  BDP C   2      32.123  12.677  67.2590  0.00  0.00     0.000 HD
BRANCH 27 33
ATOM     33   C  BDP C   2      27.023  14.968  66.8550  0.00  0.00     0.000 C
ATOM     34   O  BDP C   2      27.389  16.163  66.9630  0.00  0.00     0.000 OA
ATOM     35   O  BDP C   2      25.914  14.642  67.2440  0.00  0.00     0.000 OA
ENDBRANCH 27 33
BRANCH 23 36
ATOM     36  O4  SGN C   3      28.581  13.057  62.9770  0.00  0.00     0.000 O
BRANCH 36 40
ATOM     37  C1  SGN C   3      26.497  11.474  59.7240  0.00  0.00     0.000 C
ATOM     38  C2  SGN C   3      25.840  12.628  60.5000  0.00  0.00     0.000 C
ATOM     39  C3  SGN C   3      26.876  13.362  61.3390  0.00  0.00     0.000 C
ATOM     40  C4  SGN C   3      27.559  12.367  62.2530  0.00  0.00     0.000 C
ATOM     41  C5  SGN C   3      28.153  11.260  61.4100  0.00  0.00     0.000 C
ATOM     42  O5  SGN C   3      27.115  10.608  60.6630  0.00  0.00     0.000 O
ATOM     43   O  SGN C   3      26.232  14.384  62.0900  0.00  0.00     0.000 O
ATOM     45  HD  SGN C   3      26.944  14.117  62.5050  0.00  0.00     0.000 HD
BRANCH 38 47
ATOM     45   N  SGN C   3      25.327  13.417  59.3660  0.00  0.00     0.000 N
ATOM     47  HD  SGN C   3      26.007  13.131  59.8190  0.00  0.00     0.000 HD
ATOM     47   S  SGN C   3      23.801  13.096  59.0580  0.00  0.00     0.000 S
ATOM     48   O  SGN C   3      23.635  11.764  58.5940  0.00  0.00     0.000 OA
ATOM     49   O  SGN C   3      23.062  13.466  60.2210  0.00  0.00     0.000 OA
ATOM     50   O  SGN C   3      23.528  13.995  57.9380  0.00  0.00     0.000 OA
ENDBRANCH 38 47
BRANCH 41 51
ATOM     51   C  SGN C   3      28.870  10.201  62.2030  0.00  0.00     0.000 C
ATOM     52   O  SGN C   3      27.608   8.388  65.2030  0.00  0.00     0.000 OA
ATOM     53   O  SGN C   3      29.037   7.615  63.4440  0.00  0.00     0.000 OA
ATOM     54   O  SGN C   3      29.763   9.362  64.9230  0.00  0.00     0.000 OA
ATOM     55   O  SGN C   3      28.016   9.743  63.2270  0.00  0.00     0.000 O
ATOM     56   S  SGN C   3      28.669   8.678  64.3000  0.00  0.00     0.000 S
ENDBRANCH 41 51
BRANCH 37 57
ATOM     57  O4  IDS C   4      27.433  11.860  58.8230  0.00  0.00     0.000 O
BRANCH 57 61
ATOM     58  C1  IDS C   4      28.340  12.222  55.1460  0.00  0.00     0.000 C
ATOM     59  C2  IDS C   4      26.900  12.313  55.5430  0.00  0.00     0.000 C
ATOM     60  C3  IDS C   4      26.520  11.300  56.6250  0.00  0.00     0.000 C
ATOM     61  C4  IDS C   4      27.577  10.998  57.6780  0.00  0.00     0.000 C
ATOM     62  C5  IDS C   4      28.985  11.110  57.0810  0.00  0.00     0.000 C
ATOM     63  O5  IDS C   4      29.139  12.296  56.3140  0.00  0.00     0.000 O
ATOM     64   O  IDS C   4      26.229  10.103  55.9280  0.00  0.00     0.000 O
ATOM     66  HD  IDS C   4      26.819   9.495  56.1110  0.00  0.00     0.000 HD
BRANCH 59 66
ATOM     66   O  IDS C   4      26.570  13.646  56.0830  0.00  0.00     0.000 O
ATOM     67   S  IDS C   4      25.908  14.679  55.0710  0.00  0.00     0.000 S
ATOM     68   O  IDS C   4      24.640  14.064  54.7560  0.00  0.00     0.000 OA
ATOM     69   O  IDS C   4      25.817  15.922  55.8110  0.00  0.00     0.000 OA
ATOM     70   O  IDS C   4      26.773  14.752  53.9030  0.00  0.00     0.000 OA
ENDBRANCH 59 66
BRANCH 62 71
ATOM     71   C  IDS C   4      30.075  11.161  58.1350  0.00  0.00     0.000 C
ATOM     72   O  IDS C   4      30.304  10.185  58.8230  0.00  0.00     0.000 OA
ATOM     73   O  IDS C   4      30.649  12.248  58.3440  0.00  0.00     0.000 OA
ENDBRANCH 62 71
BRANCH 58 74
ATOM     74  O4  SGN C   5      28.618  11.274  54.2070  0.00  0.00     0.000 O
BRANCH 74 78
ATOM     75  C1  SGN C   5      31.439   9.870  51.4650  0.00  0.00     0.000 C
ATOM     76  C2  SGN C   5      31.490   9.239  52.8690  0.00  0.00     0.000 C
ATOM     77  C3  SGN C   5      30.218   9.573  53.6600  0.00  0.00     0.000 C
ATOM     78  C4  SGN C   5      29.887  11.058  53.5880  0.00  0.00     0.000 C
ATOM     79  C5  SGN C   5      29.854  11.500  52.1330  0.00  0.00     0.000 C
ATOM     80  O5  SGN C   5      31.151  11.261  51.5250  0.00  0.00     0.000 O
ATOM     81   O  SGN C   5      30.395   9.166  55.0130  0.00  0.00     0.000 O
ATOM     83  HD  SGN C   5      30.827   8.444  55.2170  0.00  0.00     0.000 HD
BRANCH 76 85
ATOM     83   N  SGN C   5      32.617   8.432  52.3860  0.00  0.00     0.000 N
ATOM     85  HD  SGN C   5      32.955   7.703  52.0640  0.00  0.00     0.000 HD
ATOM     85   S  SGN C   5      32.944   6.876  52.6420  0.00  0.00     0.000 S
ATOM     86   O  SGN C   5      34.121   6.494  51.9420  0.00  0.00     0.000 OA
ATOM     87   O  SGN C   5      32.932   6.670  54.0460  0.00  0.00     0.000 OA
ATOM     88   O  SGN C   5      31.701   6.328  51.9430  0.00  0.00     0.000 OA
ENDBRANCH 76 85
BRANCH 79 89
ATOM     89   C  SGN C   5      29.508  12.965  51.9550  0.00  0.00     0.000 C
ATOM     90   O  SGN C   5      29.383  13.270  50.5440  0.00  0.00     0.000 O
ATOM     91   S  SGN C   5      28.336  14.419  50.1450  0.00  0.00     0.000 S
ATOM     92   O  SGN C   5      27.085  14.061  50.7610  0.00  0.00     0.000 OA
ATOM     93   O  SGN C   5      28.861  15.663  50.6470  0.00  0.00     0.000 OA
ATOM     94   O  SGN C   5      28.306  14.354  48.7090  0.00  0.00     0.000 OA
ENDBRANCH 79 89
BRANCH 75 95
ATOM     95  O4  BDP C   6      30.435   9.222  50.8020  0.00  0.00     0.000 O
BRANCH 95 99
ATOM     96  C1  BDP C   6      29.503   9.270  46.6100  0.00  0.00     0.000 C
ATOM     97  C2  BDP C   6      30.912   9.567  47.0390  0.00  0.00     0.000 C
ATOM     98  C3  BDP C   6      31.234   9.157  48.4840  0.00  0.00     0.000 C
ATOM     99  C4  BDP C   6      30.166   9.649  49.4490  0.00  0.00     0.000 C
ATOM    100  C5  BDP C   6      28.786   9.237  48.8860  0.00  0.00     0.000 C
ATOM    101  O5  BDP C   6      28.729   9.901  47.6140  0.00  0.00     0.000 O
BRANCH 100 102
ATOM    102   C  BDP C   6      27.641   9.743  49.7260  0.00  0.00     0.000 C
ATOM    103   O  BDP C   6      27.151  10.871  49.5670  0.00  0.00     0.000 OA
ATOM    104   O  BDP C   6      27.193   8.973  50.5840  0.00  0.00     0.000 OA
ENDBRANCH 100 102
ENDBRANCH 95 99
ENDBRANCH 75 95
ENDBRANCH 74 78
ENDBRANCH 58 74
ENDBRANCH 57 61
ENDBRANCH 37 57
ENDBRANCH 36 40
ENDBRANCH 23 36
ENDBRANCH 22 26
ENDBRANCH 1 22
TORSDOF 20
ENDMDL
MODEL 43
REMARK VINA RESULT:      -3.1      7.398     18.167
ROOT
ATOM      1  C1  NGY C   1      28.305  22.869  45.2070  0.00  0.00     0.000 C
ATOM      2  C2  NGY C   1      29.756  23.216  45.5090  0.00  0.00     0.000 C
ATOM      3  C3  NGY C   1      30.623  21.962  45.4520  0.00  0.00     0.000 C
ATOM      4  C4  NGY C   1      30.026  20.930  46.3900  0.00  0.00     0.000 C
ATOM      5  C5  NGY C   1      28.607  20.612  45.9300  0.00  0.00     0.000 C
ATOM      6  O5  NGY C   1      27.816  21.825  46.0230  0.00  0.00     0.000 O
ATOM      7   O  NGY C   1      31.956  22.299  45.8080  0.00  0.00     0.000 O
ATOM      9  HD  NGY C   1      32.352  22.836  46.3600  0.00  0.00     0.000 HD
ATOM      9   O  NGY C   1      30.811  19.746  46.4080  0.00  0.00     0.000 O
ATOM     11  HD  NGY C   1      31.207  20.283  46.9600  0.00  0.00     0.000 HD
ENDROOT
BRANCH 2 13
ATOM     11   N  NGY C   1      29.974  24.364  44.6590  0.00  0.00     0.000 N
ATOM     13  HD  NGY C   1      30.596  24.754  45.1180  0.00  0.00     0.000 HD
ATOM     13   C  NGY C   1      30.875  25.296  44.9630  0.00  0.00     0.000 C
ATOM     14   O  NGY C   1      31.456  25.291  46.0490  0.00  0.00     0.000 OA
ATOM     15   C  NGY C   1      31.160  26.324  43.9110  0.00  0.00     0.000 C
ENDBRANCH 2 13
BRANCH 5 16
ATOM     16   C  NGY C   1      27.884  19.595  46.7550  0.00  0.00     0.000 C
ATOM     17   O  NGY C   1      27.671  16.035  45.8970  0.00  0.00     0.000 OA
ATOM     18   O  NGY C   1      27.820  18.369  46.0220  0.00  0.00     0.000 O
ATOM     19   S  NGY C   1      27.511  17.084  46.8710  0.00  0.00     0.000 S
ATOM     20   O  NGY C   1      26.153  17.198  47.3350  0.00  0.00     0.000 OA
ATOM     21   O  NGY C   1      28.494  17.107  47.9420  0.00  0.00     0.000 OA
ENDBRANCH 5 16
BRANCH 1 22
ATOM     22  O4  BDP C   2      28.188  22.597  43.8910  0.00  0.00     0.000 O
BRANCH 22 26
ATOM     23  C1  BDP C   2      26.025  22.642  40.3860  0.00  0.00     0.000 C
ATOM     24  C2  BDP C   2      26.092  23.958  41.1250  0.00  0.00     0.000 C
ATOM     25  C3  BDP C   2      27.186  23.902  42.1590  0.00  0.00     0.000 C
ATOM     26  C4  BDP C   2      27.002  22.683  43.0570  0.00  0.00     0.000 C
ATOM     27  C5  BDP C   2      26.769  21.443  42.2040  0.00  0.00     0.000 C
ATOM     28  O5  BDP C   2      25.637  21.584  41.3070  0.00  0.00     0.000 O
ATOM     29   O  BDP C   2      26.484  25.038  40.2780  0.00  0.00     0.000 O
ATOM     31  HD  BDP C   2      26.984  25.649  40.6360  0.00  0.00     0.000 HD
ATOM     31   O  BDP C   2      27.090  25.094  42.9280  0.00  0.00     0.000 O
ATOM     33  HD  BDP C   2      27.589  25.705  43.2850  0.00  0.00     0.000 HD
BRANCH 27 33
ATOM     33   C  BDP C   2      26.482  20.215  43.0360  0.00  0.00     0.000 C
ATOM     34   O  BDP C   2      25.629  20.219  43.9550  0.00  0.00     0.000 OA
ATOM     35   O  BDP C   2      27.129  19.204  42.8210  0.00  0.00     0.000 OA
ENDBRANCH 27 33
BRANCH 23 36
ATOM     36  O4  SGN C   3      25.167  22.609  39.3400  0.00  0.00     0.000 O
BRANCH 36 40
ATOM     37  C1  SGN C   3      24.470  21.152  35.4900  0.00  0.00     0.000 C
ATOM     38  C2  SGN C   3      24.430  20.147  36.6520  0.00  0.00     0.000 C
ATOM     39  C3  SGN C   3      24.263  20.873  37.9790  0.00  0.00     0.000 C
ATOM     40  C4  SGN C   3      25.381  21.882  38.1270  0.00  0.00     0.000 C
ATOM     41  C5  SGN C   3      25.360  22.812  36.9340  0.00  0.00     0.000 C
ATOM     42  O5  SGN C   3      25.538  22.056  35.7260  0.00  0.00     0.000 O
ATOM     43   O  SGN C   3      24.289  19.925  39.0380  0.00  0.00     0.000 O
ATOM     45  HD  SGN C   3      24.568  20.693  39.3230  0.00  0.00     0.000 HD
BRANCH 38 47
ATOM     45   N  SGN C   3      23.332  19.170  36.5370  0.00  0.00     0.000 N
ATOM     47  HD  SGN C   3      23.609  19.939  36.8220  0.00  0.00     0.000 HD
ATOM     47   S  SGN C   3      23.645  18.044  35.4580  0.00  0.00     0.000 S
ATOM     48   O  SGN C   3      23.702  18.585  34.1470  0.00  0.00     0.000 OA
ATOM     49   O  SGN C   3      24.805  17.351  35.9160  0.00  0.00     0.000 OA
ATOM     50   O  SGN C   3      22.449  17.209  35.5450  0.00  0.00     0.000 OA
ENDBRANCH 38 47
BRANCH 41 51
ATOM     51   C  SGN C   3      26.427  23.873  36.9620  0.00  0.00     0.000 C
ATOM     52   O  SGN C   3      25.935  27.566  36.9190  0.00  0.00     0.000 OA
ATOM     53   O  SGN C   3      27.622  26.265  38.0120  0.00  0.00     0.000 OA
ATOM     54   O  SGN C   3      27.487  26.315  35.6150  0.00  0.00     0.000 OA
ATOM     55   O  SGN C   3      25.808  25.140  36.9830  0.00  0.00     0.000 O
ATOM     56   S  SGN C   3      26.808  26.443  36.8710  0.00  0.00     0.000 S
ENDBRANCH 41 51
BRANCH 37 57
ATOM     57  O4  IDS C   4      23.334  21.873  35.3260  0.00  0.00     0.000 O
BRANCH 57 61
ATOM     58  C1  IDS C   4      21.109  23.028  32.4650  0.00  0.00     0.000 C
ATOM     59  C2  IDS C   4      22.121  21.959  32.2000  0.00  0.00     0.000 C
ATOM     60  C3  IDS C   4      23.453  22.218  32.9090  0.00  0.00     0.000 C
ATOM     61  C4  IDS C   4      23.379  22.867  34.2840  0.00  0.00     0.000 C
ATOM     62  C5  IDS C   4      22.174  23.811  34.3750  0.00  0.00     0.000 C
ATOM     63  O5  IDS C   4      20.993  23.209  33.8660  0.00  0.00     0.000 O
ATOM     64   O  IDS C   4      24.171  23.081  32.0470  0.00  0.00     0.000 O
ATOM     66  HD  IDS C   4      24.269  23.861  32.4110  0.00  0.00     0.000 HD
BRANCH 59 66
ATOM     66   O  IDS C   4      21.651  20.640  32.6640  0.00  0.00     0.000 O
ATOM     67   S  IDS C   4      21.391  19.543  31.5400  0.00  0.00     0.000 S
ATOM     68   O  IDS C   4      22.707  19.315  30.9940  0.00  0.00     0.000 OA
ATOM     69   O  IDS C   4      20.818  18.414  32.2460  0.00  0.00     0.000 OA
ATOM     70   O  IDS C   4      20.498  20.137  30.5580  0.00  0.00     0.000 OA
ENDBRANCH 59 66
BRANCH 62 71
ATOM     71   C  IDS C   4      21.845  24.219  35.7980  0.00  0.00     0.000 C
ATOM     72   O  IDS C   4      22.616  24.918  36.4270  0.00  0.00     0.000 OA
ATOM     73   O  IDS C   4      20.826  23.738  36.3330  0.00  0.00     0.000 OA
ENDBRANCH 62 71
BRANCH 58 74
ATOM     74  O4  SGN C   5      21.204  24.123  31.6570  0.00  0.00     0.000 O
BRANCH 74 78
ATOM     75  C1  SGN C   5      19.128  27.262  29.8470  0.00  0.00     0.000 C
ATOM     76  C2  SGN C   5      19.725  27.559  31.2350  0.00  0.00     0.000 C
ATOM     77  C3  SGN C   5      20.733  26.474  31.6350  0.00  0.00     0.000 C
ATOM     78  C4  SGN C   5      20.169  25.077  31.4170  0.00  0.00     0.000 C
ATOM     79  C5  SGN C   5      19.650  24.956  29.9920  0.00  0.00     0.000 C
ATOM     80  O5  SGN C   5      18.607  25.942  29.7710  0.00  0.00     0.000 O
ATOM     81   O  SGN C   5      21.094  26.659  33.0000  0.00  0.00     0.000 O
ATOM     83  HD  SGN C   5      21.184  27.450  33.3430  0.00  0.00     0.000 HD
BRANCH 76 85
ATOM     83   N  SGN C   5      19.183  28.912  31.0580  0.00  0.00     0.000 N
ATOM     85  HD  SGN C   5      19.268  29.754  30.8740  0.00  0.00     0.000 HD
ATOM     85   S  SGN C   5      19.803  30.329  31.5060  0.00  0.00     0.000 S
ATOM     86   O  SGN C   5      18.959  31.395  31.0910  0.00  0.00     0.000 OA
ATOM     87   O  SGN C   5      20.096  30.239  32.8920  0.00  0.00     0.000 OA
ATOM     88   O  SGN C   5      21.046  30.253  30.6230  0.00  0.00     0.000 OA
ENDBRANCH 76 85
BRANCH 79 89
ATOM     89   C  SGN C   5      19.088  23.587  29.6680  0.00  0.00     0.000 C
ATOM     90   O  SGN C   5      18.049  23.246  30.6200  0.00  0.00     0.000 O
ATOM     91   S  SGN C   5      16.855  22.318  30.0820  0.00  0.00     0.000 S
ATOM     92   O  SGN C   5      16.350  22.954  28.8930  0.00  0.00     0.000 OA
ATOM     93   O  SGN C   5      17.416  21.018  29.8160  0.00  0.00     0.000 OA
ATOM     94   O  SGN C   5      15.919  22.319  31.1730  0.00  0.00     0.000 OA
ENDBRANCH 79 89
BRANCH 75 95
ATOM     95  O4  BDP C   6      20.159  27.401  28.9610  0.00  0.00     0.000 O
BRANCH 95 99
ATOM     96  C1  BDP C   6      19.629  29.188  25.0920  0.00  0.00     0.000 C
ATOM     97  C2  BDP C   6      18.426  29.004  25.9730  0.00  0.00     0.000 C
ATOM     98  C3  BDP C   6      18.756  28.725  27.4470  0.00  0.00     0.000 C
ATOM     99  C4  BDP C   6      19.806  27.631  27.5800  0.00  0.00     0.000 C
ATOM    100  C5  BDP C   6      20.985  27.984  26.6440  0.00  0.00     0.000 C
ATOM    101  O5  BDP C   6      20.383  28.015  25.3400  0.00  0.00     0.000 O
BRANCH 100 102
ATOM    102   C  BDP C   6      22.058  26.925  26.6350  0.00  0.00     0.000 C
ATOM    103   O  BDP C   6      23.253  27.191  26.8260  0.00  0.00     0.000 OA
ATOM    104   O  BDP C   6      21.691  25.760  26.4390  0.00  0.00     0.000 OA
ENDBRANCH 100 102
ENDBRANCH 95 99
ENDBRANCH 75 95
ENDBRANCH 74 78
ENDBRANCH 58 74
ENDBRANCH 57 61
ENDBRANCH 37 57
ENDBRANCH 36 40
ENDBRANCH 23 36
ENDBRANCH 22 26
ENDBRANCH 1 22
TORSDOF 20
ENDMDL
MODEL 44
REMARK VINA RESULT:      -2.9     29.174     38.144
ROOT
ATOM      1  C1  NGY C   1      28.551  13.237  68.9040  0.00  0.00     0.000 C
ATOM      2  C2  NGY C   1      28.411  12.209  70.0180  0.00  0.00     0.000 C
ATOM      3  C3  NGY C   1      26.948  12.069  70.4280  0.00  0.00     0.000 C
ATOM      4  C4  NGY C   1      26.422  13.446  70.7870  0.00  0.00     0.000 C
ATOM      5  C5  NGY C   1      26.544  14.351  69.5650  0.00  0.00     0.000 C
ATOM      6  O5  NGY C   1      27.950  14.473  69.2270  0.00  0.00     0.000 O
ATOM      7   O  NGY C   1      26.853  11.160  71.5150  0.00  0.00     0.000 O
ATOM      9  HD  NGY C   1      27.316  10.956  72.2180  0.00  0.00     0.000 HD
ATOM      9   O  NGY C   1      25.068  13.377  71.2110  0.00  0.00     0.000 O
ATOM     11  HD  NGY C   1      25.532  13.173  71.9140  0.00  0.00     0.000 HD
ENDROOT
BRANCH 2 13
ATOM     11   N  NGY C   1      29.182  11.098  69.5110  0.00  0.00     0.000 N
ATOM     13  HD  NGY C   1      29.426  10.749  70.2650  0.00  0.00     0.000 HD
ATOM     13   C  NGY C   1      29.786  10.237  70.3290  0.00  0.00     0.000 C
ATOM     14   O  NGY C   1      29.829  10.436  71.5440  0.00  0.00     0.000 OA
ATOM     15   C  NGY C   1      30.379   9.013  69.6990  0.00  0.00     0.000 C
ENDBRANCH 2 13
BRANCH 5 16
ATOM     16   C  NGY C   1      26.053  15.750  69.7590  0.00  0.00     0.000 C
ATOM     17   O  NGY C   1      22.754  16.935  68.6750  0.00  0.00     0.000 OA
ATOM     18   O  NGY C   1      24.833  15.915  69.0320  0.00  0.00     0.000 O
ATOM     19   S  NGY C   1      23.945  17.138  69.4600  0.00  0.00     0.000 S
ATOM     20   O  NGY C   1      24.654  18.332  69.0820  0.00  0.00     0.000 OA
ATOM     21   O  NGY C   1      23.786  16.989  70.8980  0.00  0.00     0.000 OA
ENDBRANCH 5 16
BRANCH 1 22
ATOM     22  O4  BDP C   2      28.067  12.707  67.7610  0.00  0.00     0.000 O
BRANCH 22 26
ATOM     23  C1  BDP C   2      28.138  12.298  63.6630  0.00  0.00     0.000 C
ATOM     24  C2  BDP C   2      29.450  12.037  64.3650  0.00  0.00     0.000 C
ATOM     25  C3  BDP C   2      29.207  11.860  65.8410  0.00  0.00     0.000 C
ATOM     26  C4  BDP C   2      28.421  13.044  66.3930  0.00  0.00     0.000 C
ATOM     27  C5  BDP C   2      27.215  13.323  65.5050  0.00  0.00     0.000 C
ATOM     28  O5  BDP C   2      27.581  13.562  64.1220  0.00  0.00     0.000 O
ATOM     29   O  BDP C   2      30.042  10.800  63.9700  0.00  0.00     0.000 O
ATOM     31  HD  BDP C   2      30.466  10.360  64.5840  0.00  0.00     0.000 HD
ATOM     31   O  BDP C   2      30.483  11.787  66.4640  0.00  0.00     0.000 O
ATOM     33  HD  BDP C   2      30.906  11.347  67.0780  0.00  0.00     0.000 HD
BRANCH 27 33
ATOM     33   C  BDP C   2      26.447  14.548  65.9430  0.00  0.00     0.000 C
ATOM     34   O  BDP C   2      27.018  15.631  66.2120  0.00  0.00     0.000 OA
ATOM     35   O  BDP C   2      25.237  14.459  66.0680  0.00  0.00     0.000 OA
ENDBRANCH 27 33
BRANCH 23 36
ATOM     36  O4  SGN C   3      28.204  12.346  62.3120  0.00  0.00     0.000 O
BRANCH 36 40
ATOM     37  C1  SGN C   3      26.288  11.393  58.7270  0.00  0.00     0.000 C
ATOM     38  C2  SGN C   3      25.709  12.547  59.5610  0.00  0.00     0.000 C
ATOM     39  C3  SGN C   3      26.736  13.044  60.5680  0.00  0.00     0.000 C
ATOM     40  C4  SGN C   3      27.183  11.879  61.4250  0.00  0.00     0.000 C
ATOM     41  C5  SGN C   3      27.715  10.786  60.5240  0.00  0.00     0.000 C
ATOM     42  O5  SGN C   3      26.686  10.362  59.6170  0.00  0.00     0.000 O
ATOM     43   O  SGN C   3      26.155  14.069  61.3640  0.00  0.00     0.000 O
ATOM     45  HD  SGN C   3      26.778  13.666  61.8110  0.00  0.00     0.000 HD
BRANCH 38 47
ATOM     45   N  SGN C   3      25.456  13.134  58.2330  0.00  0.00     0.000 N
ATOM     47  HD  SGN C   3      25.998  12.719  58.7660  0.00  0.00     0.000 HD
ATOM     47   S  SGN C   3      23.912  13.433  57.9970  0.00  0.00     0.000 S
ATOM     48   O  SGN C   3      23.155  12.233  57.9420  0.00  0.00     0.000 OA
ATOM     49   O  SGN C   3      23.526  14.390  58.9820  0.00  0.00     0.000 OA
ATOM     50   O  SGN C   3      23.924  14.015  56.6570  0.00  0.00     0.000 OA
ENDBRANCH 38 47
BRANCH 41 51
ATOM     51   C  SGN C   3      28.200   9.566  61.2580  0.00  0.00     0.000 C
ATOM     52   O  SGN C   3      26.353   7.595  63.8240  0.00  0.00     0.000 OA
ATOM     53   O  SGN C   3      27.919   6.856  62.1720  0.00  0.00     0.000 OA
ATOM     54   O  SGN C   3      28.617   8.325  63.9390  0.00  0.00     0.000 OA
ATOM     55   O  SGN C   3      27.170   9.103  62.1030  0.00  0.00     0.000 O
ATOM     56   S  SGN C   3      27.552   7.853  63.1030  0.00  0.00     0.000 S
ENDBRANCH 41 51
BRANCH 37 57
ATOM     57  O4  IDS C   4      27.357  11.728  57.9630  0.00  0.00     0.000 O
BRANCH 57 61
ATOM     58  C1  IDS C   4      28.939  11.778  54.5040  0.00  0.00     0.000 C
ATOM     59  C2  IDS C   4      27.450  11.880  54.6140  0.00  0.00     0.000 C
ATOM     60  C3  IDS C   4      26.873  10.960  55.6930  0.00  0.00     0.000 C
ATOM     61  C4  IDS C   4      27.714  10.770  56.9480  0.00  0.00     0.000 C
ATOM     62  C5  IDS C   4      29.209  10.853  56.6170  0.00  0.00     0.000 C
ATOM     63  O5  IDS C   4      29.504  11.968  55.7890  0.00  0.00     0.000 O
ATOM     64   O  IDS C   4      26.718   9.701  55.0650  0.00  0.00     0.000 O
ATOM     66  HD  IDS C   4      27.262   9.122  55.4090  0.00  0.00     0.000 HD
BRANCH 59 66
ATOM     66   O  IDS C   4      27.025  13.250  54.9610  0.00  0.00     0.000 O
ATOM     67   S  IDS C   4      26.303  14.081  53.8120  0.00  0.00     0.000 S
ATOM     68   O  IDS C   4      25.083  13.342  53.5890  0.00  0.00     0.000 OA
ATOM     69   O  IDS C   4      26.120  15.407  54.3700  0.00  0.00     0.000 OA
ATOM     70   O  IDS C   4      27.171  14.048  52.6460  0.00  0.00     0.000 OA
ENDBRANCH 59 66
BRANCH 62 71
ATOM     71   C  IDS C   4      30.081  11.014  57.8480  0.00  0.00     0.000 C
ATOM     72   O  IDS C   4      30.486  12.115  58.1680  0.00  0.00     0.000 OA
ATOM     73   O  IDS C   4      30.453   9.988  58.4510  0.00  0.00     0.000 OA
ENDBRANCH 62 71
BRANCH 58 74
ATOM     74  O4  SGN C   5      29.388  10.755  53.7230  0.00  0.00     0.000 O
BRANCH 74 78
ATOM     75  C1  SGN C   5      32.792   9.173  51.8900  0.00  0.00     0.000 C
ATOM     76  C2  SGN C   5      32.257   8.395  53.1070  0.00  0.00     0.000 C
ATOM     77  C3  SGN C   5      30.842   8.864  53.4710  0.00  0.00     0.000 C
ATOM     78  C4  SGN C   5      30.754  10.383  53.5370  0.00  0.00     0.000 C
ATOM     79  C5  SGN C   5      31.300  10.979  52.2480  0.00  0.00     0.000 C
ATOM     80  O5  SGN C   5      32.685  10.579  52.0770  0.00  0.00     0.000 O
ATOM     81   O  SGN C   5      30.471   8.288  54.7190  0.00  0.00     0.000 O
ATOM     83  HD  SGN C   5      30.705   7.483  54.9350  0.00  0.00     0.000 HD
BRANCH 76 85
ATOM     83   N  SGN C   5      33.263   7.421  52.6660  0.00  0.00     0.000 N
ATOM     85  HD  SGN C   5      33.498   6.639  52.3800  0.00  0.00     0.000 HD
ATOM     85   S  SGN C   5      33.376   5.848  52.9950  0.00  0.00     0.000 S
ATOM     86   O  SGN C   5      34.489   5.278  52.3180  0.00  0.00     0.000 OA
ATOM     87   O  SGN C   5      33.340   5.712  54.4070  0.00  0.00     0.000 OA
ATOM     88   O  SGN C   5      32.069   5.443  52.3180  0.00  0.00     0.000 OA
ENDBRANCH 76 85
BRANCH 79 89
ATOM     89   C  SGN C   5      31.233  12.492  52.2060  0.00  0.00     0.000 C
ATOM     90   O  SGN C   5      32.139  13.050  53.1890  0.00  0.00     0.000 O
ATOM     91   S  SGN C   5      32.802  14.468  52.8360  0.00  0.00     0.000 S
ATOM     92   O  SGN C   5      33.396  14.325  51.5320  0.00  0.00     0.000 OA
ATOM     93   O  SGN C   5      31.745  15.446  52.8550  0.00  0.00     0.000 OA
ATOM     94   O  SGN C   5      33.766  14.653  53.8860  0.00  0.00     0.000 OA
ENDBRANCH 79 89
BRANCH 75 95
ATOM     95  O4  BDP C   6      32.015   8.791  50.8330  0.00  0.00     0.000 O
BRANCH 95 99
ATOM     96  C1  BDP C   6      32.815   9.196  46.6330  0.00  0.00     0.000 C
ATOM     97  C2  BDP C   6      33.974   9.182  47.5900  0.00  0.00     0.000 C
ATOM     98  C3  BDP C   6      33.631   8.658  48.9930  0.00  0.00     0.000 C
ATOM     99  C4  BDP C   6      32.373   9.318  49.5380  0.00  0.00     0.000 C
ATOM    100  C5  BDP C   6      31.273   9.217  48.4550  0.00  0.00     0.000 C
ATOM    101  O5  BDP C   6      31.833   9.930  47.3400  0.00  0.00     0.000 O
BRANCH 100 102
ATOM    102   C  BDP C   6      29.996   9.912  48.8560  0.00  0.00     0.000 C
ATOM    103   O  BDP C   6      29.870  11.144  48.8100  0.00  0.00     0.000 OA
ATOM    104   O  BDP C   6      29.062   9.192  49.2270  0.00  0.00     0.000 OA
ENDBRANCH 100 102
ENDBRANCH 95 99
ENDBRANCH 75 95
ENDBRANCH 74 78
ENDBRANCH 58 74
ENDBRANCH 57 61
ENDBRANCH 37 57
ENDBRANCH 36 40
ENDBRANCH 23 36
ENDBRANCH 22 26
ENDBRANCH 1 22
TORSDOF 20
ENDMDL
MODEL 45
REMARK VINA RESULT:      -2.7     30.299     41.711
ROOT
ATOM      1  C1  NGY C   1      37.005  13.445  69.9200  0.00  0.00     0.000 C
ATOM      2  C2  NGY C   1      36.984  14.854  70.4960  0.00  0.00     0.000 C
ATOM      3  C3  NGY C   1      38.366  15.490  70.3890  0.00  0.00     0.000 C
ATOM      4  C4  NGY C   1      39.368  14.565  71.0540  0.00  0.00     0.000 C
ATOM      5  C5  NGY C   1      39.348  13.221  70.3320  0.00  0.00     0.000 C
ATOM      6  O5  NGY C   1      38.024  12.645  70.4810  0.00  0.00     0.000 O
ATOM      7   O  NGY C   1      38.339  16.773  70.9980  0.00  0.00     0.000 O
ATOM      9  HD  NGY C   1      37.958  17.146  71.6800  0.00  0.00     0.000 HD
ATOM      9   O  NGY C   1      40.675  15.120  71.0160  0.00  0.00     0.000 O
ATOM     11  HD  NGY C   1      40.295  15.494  71.6990  0.00  0.00     0.000 HD
ENDROOT
BRANCH 2 13
ATOM     11   N  NGY C   1      35.814  15.424  69.8700  0.00  0.00     0.000 N
ATOM     13  HD  NGY C   1      35.602  16.000  70.4810  0.00  0.00     0.000 HD
ATOM     13   C  NGY C   1      35.110  16.391  70.4550  0.00  0.00     0.000 C
ATOM     14   O  NGY C   1      35.344  16.737  71.6150  0.00  0.00     0.000 OA
ATOM     15   C  NGY C   1      34.048  17.046  69.6260  0.00  0.00     0.000 C
ENDBRANCH 2 13
BRANCH 5 16
ATOM     16   C  NGY C   1      40.297  12.197  70.8690  0.00  0.00     0.000 C
ATOM     17   O  NGY C   1      39.913  10.556  74.1270  0.00  0.00     0.000 OA
ATOM     18   O  NGY C   1      39.967  11.937  72.2360  0.00  0.00     0.000 O
ATOM     19   S  NGY C   1      40.539  10.600  72.8300  0.00  0.00     0.000 S
ATOM     20   O  NGY C   1      41.968  10.749  72.9160  0.00  0.00     0.000 OA
ATOM     21   O  NGY C   1      40.118   9.572  71.8910  0.00  0.00     0.000 OA
ENDBRANCH 5 16
BRANCH 1 22
ATOM     22  O4  BDP C   2      37.090  13.527  68.5760  0.00  0.00     0.000 O
BRANCH 22 26
ATOM     23  C1  BDP C   2      36.205  12.098  64.8150  0.00  0.00     0.000 C
ATOM     24  C2  BDP C   2      35.020  12.301  65.7290  0.00  0.00     0.000 C
ATOM     25  C3  BDP C   2      35.426  13.152  66.9040  0.00  0.00     0.000 C
ATOM     26  C4  BDP C   2      36.654  12.558  67.5860  0.00  0.00     0.000 C
ATOM     27  C5  BDP C   2      37.717  12.232  66.5460  0.00  0.00     0.000 C
ATOM     28  O5  BDP C   2      37.233  11.338  65.5110  0.00  0.00     0.000 O
ATOM     29   O  BDP C   2      33.979  13.058  65.1100  0.00  0.00     0.000 O
ATOM     31  HD  BDP C   2      33.537  13.599  65.6210  0.00  0.00     0.000 HD
ATOM     31   O  BDP C   2      34.326  13.167  67.8040  0.00  0.00     0.000 O
ATOM     33  HD  BDP C   2      33.884  13.709  68.3150  0.00  0.00     0.000 HD
BRANCH 27 33
ATOM     33   C  BDP C   2      38.922  11.548  67.1460  0.00  0.00     0.000 C
ATOM     34   O  BDP C   2      38.832  10.460  67.7630  0.00  0.00     0.000 OA
ATOM     35   O  BDP C   2      40.007  12.098  67.0530  0.00  0.00     0.000 OA
ENDBRANCH 27 33
BRANCH 23 36
ATOM     36  O4  SGN C   3      35.938  11.458  63.6530  0.00  0.00     0.000 O
BRANCH 36 40
ATOM     37  C1  SGN C   3      36.649  11.325  59.5420  0.00  0.00     0.000 C
ATOM     38  C2  SGN C   3      37.792  10.901  60.4780  0.00  0.00     0.000 C
ATOM     39  C3  SGN C   3      37.254  10.588  61.8660  0.00  0.00     0.000 C
ATOM     40  C4  SGN C   3      36.502  11.795  62.3830  0.00  0.00     0.000 C
ATOM     41  C5  SGN C   3      35.416  12.154  61.3930  0.00  0.00     0.000 C
ATOM     42  O5  SGN C   3      36.003  12.451  60.1160  0.00  0.00     0.000 O
ATOM     43   O  SGN C   3      38.339  10.257  62.7250  0.00  0.00     0.000 O
ATOM     45  HD  SGN C   3      37.686  10.589  63.1880  0.00  0.00     0.000 HD
BRANCH 38 47
ATOM     45   N  SGN C   3      38.457  11.183  59.1930  0.00  0.00     0.000 N
ATOM     47  HD  SGN C   3      37.970  11.467  59.8510  0.00  0.00     0.000 HD
ATOM     47   S  SGN C   3      39.511  10.057  58.8070  0.00  0.00     0.000 S
ATOM     48   O  SGN C   3      40.605  10.041  59.7120  0.00  0.00     0.000 OA
ATOM     49   O  SGN C   3      38.778   8.842  58.6660  0.00  0.00     0.000 OA
ATOM     50   O  SGN C   3      40.005  10.541  57.5190  0.00  0.00     0.000 OA
ENDBRANCH 38 47
BRANCH 41 51
ATOM     51   C  SGN C   3      34.586  13.343  61.7940  0.00  0.00     0.000 C
ATOM     52   O  SGN C   3      31.192  14.245  60.5520  0.00  0.00     0.000 OA
ATOM     53   O  SGN C   3      32.157  14.567  62.7190  0.00  0.00     0.000 OA
ATOM     54   O  SGN C   3      33.056  15.706  60.8060  0.00  0.00     0.000 OA
ATOM     55   O  SGN C   3      33.347  13.280  61.1240  0.00  0.00     0.000 O
ATOM     56   S  SGN C   3      32.345  14.572  61.3190  0.00  0.00     0.000 S
ENDBRANCH 41 51
BRANCH 37 57
ATOM     57  O4  IDS C   4      35.714  10.368  59.3200  0.00  0.00     0.000 O
BRANCH 57 61
ATOM     58  C1  IDS C   4      34.050   8.876  56.2420  0.00  0.00     0.000 C
ATOM     59  C2  IDS C   4      35.231   9.775  56.0550  0.00  0.00     0.000 C
ATOM     60  C3  IDS C   4      35.217  10.976  57.0050  0.00  0.00     0.000 C
ATOM     61  C4  IDS C   4      34.665  10.731  58.4030  0.00  0.00     0.000 C
ATOM     62  C5  IDS C   4      33.567   9.661  58.3750  0.00  0.00     0.000 C
ATOM     63  O5  IDS C   4      33.957   8.527  57.6130  0.00  0.00     0.000 O
ATOM     64   O  IDS C   4      34.405  11.945  56.3690  0.00  0.00     0.000 O
ATOM     66  HD  IDS C   4      33.675  12.071  56.8180  0.00  0.00     0.000 HD
BRANCH 59 66
ATOM     66   O  IDS C   4      36.500   9.063  56.3000  0.00  0.00     0.000 O
ATOM     67   S  IDS C   4      37.493   8.936  55.0640  0.00  0.00     0.000 S
ATOM     68   O  IDS C   4      37.863  10.305  54.7970  0.00  0.00     0.000 OA
ATOM     69   O  IDS C   4      38.572   8.092  55.5380  0.00  0.00     0.000 OA
ATOM     70   O  IDS C   4      36.737   8.360  53.9620  0.00  0.00     0.000 OA
ENDBRANCH 59 66
BRANCH 62 71
ATOM     71   C  IDS C   4      33.220   9.128  59.7520  0.00  0.00     0.000 C
ATOM     72   O  IDS C   4      33.388   7.952  60.0110  0.00  0.00     0.000 OA
ATOM     73   O  IDS C   4      32.668   9.897  60.5640  0.00  0.00     0.000 OA
ENDBRANCH 62 71
BRANCH 58 74
ATOM     74  O4  SGN C   5      32.925   9.257  55.5730  0.00  0.00     0.000 O
BRANCH 74 78
ATOM     75  C1  SGN C   5      29.717   8.019  53.2030  0.00  0.00     0.000 C
ATOM     76  C2  SGN C   5      29.515   7.906  54.7260  0.00  0.00     0.000 C
ATOM     77  C3  SGN C   5      30.597   8.694  55.4760  0.00  0.00     0.000 C
ATOM     78  C4  SGN C   5      31.989   8.382  54.9460  0.00  0.00     0.000 C
ATOM     79  C5  SGN C   5      32.010   8.569  53.4360  0.00  0.00     0.000 C
ATOM     80  O5  SGN C   5      31.043   7.676  52.8220  0.00  0.00     0.000 O
ATOM     81   O  SGN C   5      30.511   8.389  56.8650  0.00  0.00     0.000 O
ATOM     83  HD  SGN C   5      29.749   8.263  57.2560  0.00  0.00     0.000 HD
BRANCH 76 85
ATOM     83   N  SGN C   5      28.319   7.870  55.5770  0.00  0.00     0.000 N
ATOM     85  HD  SGN C   5      27.547   7.549  55.8010  0.00  0.00     0.000 HD
ATOM     85   S  SGN C   5      26.775   7.672  55.1630  0.00  0.00     0.000 S
ATOM     86   O  SGN C   5      25.949   7.658  56.3200  0.00  0.00     0.000 OA
ATOM     87   O  SGN C   5      26.480   8.641  54.1700  0.00  0.00     0.000 OA
ATOM     88   O  SGN C   5      26.935   6.262  54.5990  0.00  0.00     0.000 OA
ENDBRANCH 76 85
BRANCH 79 89
ATOM     89   C  SGN C   5      33.366   8.304  52.8130  0.00  0.00     0.000 C
ATOM     90   O  SGN C   5      33.351   8.700  51.4200  0.00  0.00     0.000 O
ATOM     91   S  SGN C   5      34.736   9.233  50.8080  0.00  0.00     0.000 S
ATOM     92   O  SGN C   5      35.196  10.274  51.6900  0.00  0.00     0.000 OA
ATOM     93   O  SGN C   5      35.638   8.112  50.7610  0.00  0.00     0.000 OA
ATOM     94   O  SGN C   5      34.358   9.713  49.5060  0.00  0.00     0.000 OA
ENDBRANCH 79 89
BRANCH 75 95
ATOM     95  O4  BDP C   6      29.474   9.326  52.8920  0.00  0.00     0.000 O
BRANCH 95 99
ATOM     96  C1  BDP C   6      27.719  10.817  49.2660  0.00  0.00     0.000 C
ATOM     97  C2  BDP C   6      27.614   9.348  49.5680  0.00  0.00     0.000 C
ATOM     98  C3  BDP C   6      27.919   8.978  51.0270  0.00  0.00     0.000 C
ATOM     99  C4  BDP C   6      29.210   9.627  51.5040  0.00  0.00     0.000 C
ATOM    100  C5  BDP C   6      29.145  11.132  51.1530  0.00  0.00     0.000 C
ATOM    101  O5  BDP C   6      29.020  11.139  49.7220  0.00  0.00     0.000 O
BRANCH 100 102
ATOM    102   C  BDP C   6      30.412  11.868  51.5120  0.00  0.00     0.000 C
ATOM    103   O  BDP C   6      31.532  11.459  51.1740  0.00  0.00     0.000 OA
ATOM    104   O  BDP C   6      30.286  12.917  52.1540  0.00  0.00     0.000 OA
ENDBRANCH 100 102
ENDBRANCH 95 99
ENDBRANCH 75 95
ENDBRANCH 74 78
ENDBRANCH 58 74
ENDBRANCH 57 61
ENDBRANCH 37 57
ENDBRANCH 36 40
ENDBRANCH 23 36
ENDBRANCH 22 26
ENDBRANCH 1 22
TORSDOF 20
ENDMDL
MODEL 46
REMARK VINA RESULT:      -2.7     27.896     33.982
ROOT
ATOM      1  C1  NGY C   1      38.056  39.124   7.4420  0.00  0.00     0.000 C
ATOM      2  C2  NGY C   1      39.577  39.161   7.5150  0.00  0.00     0.000 C
ATOM      3  C3  NGY C   1      40.168  39.330   6.1190  0.00  0.00     0.000 C
ATOM      4  C4  NGY C   1      39.619  38.228   5.2330  0.00  0.00     0.000 C
ATOM      5  C5  NGY C   1      38.099  38.353   5.1810  0.00  0.00     0.000 C
ATOM      6  O5  NGY C   1      37.581  38.163   6.5230  0.00  0.00     0.000 O
ATOM      7   O  NGY C   1      41.586  39.289   6.2050  0.00  0.00     0.000 O
ATOM      9  HD  NGY C   1      42.184  38.867   6.6670  0.00  0.00     0.000 HD
ATOM      9   O  NGY C   1      40.161  38.310   3.9230  0.00  0.00     0.000 O
ATOM     11  HD  NGY C   1      40.760  37.888   4.3850  0.00  0.00     0.000 HD
ENDROOT
BRANCH 2 13
ATOM     11   N  NGY C   1      39.790  40.084   8.6050  0.00  0.00     0.000 N
ATOM     13  HD  NGY C   1      40.572  39.812   8.8600  0.00  0.00     0.000 HD
ATOM     13   C  NGY C   1      40.902  40.054   9.3370  0.00  0.00     0.000 C
ATOM     14   O  NGY C   1      41.727  39.148   9.2060  0.00  0.00     0.000 OA
ATOM     15   C  NGY C   1      41.106  41.185  10.2990  0.00  0.00     0.000 C
ENDBRANCH 2 13
BRANCH 5 16
ATOM     16   C  NGY C   1      37.406  37.335   4.3330  0.00  0.00     0.000 C
ATOM     17   O  NGY C   1      35.879  38.074   1.0800  0.00  0.00     0.000 OA
ATOM     18   O  NGY C   1      36.750  38.006   3.2540  0.00  0.00     0.000 O
ATOM     19   S  NGY C   1      36.357  37.102   2.0300  0.00  0.00     0.000 S
ATOM     20   O  NGY C   1      35.315  36.213   2.4760  0.00  0.00     0.000 OA
ATOM     21   O  NGY C   1      37.588  36.418   1.6690  0.00  0.00     0.000 OA
ENDBRANCH 5 16
BRANCH 1 22
ATOM     22  O4  BDP C   2      37.603  40.367   7.1760  0.00  0.00     0.000 O
BRANCH 22 26
ATOM     23  C1  BDP C   2      34.423  42.967   7.4730  0.00  0.00     0.000 C
ATOM     24  C2  BDP C   2      34.366  41.765   8.3840  0.00  0.00     0.000 C
ATOM     25  C3  BDP C   2      35.722  41.112   8.4450  0.00  0.00     0.000 C
ATOM     26  C4  BDP C   2      36.228  40.812   7.0380  0.00  0.00     0.000 C
ATOM     27  C5  BDP C   2      36.075  42.048   6.1600  0.00  0.00     0.000 C
ATOM     28  O5  BDP C   2      34.710  42.536   6.1130  0.00  0.00     0.000 O
ATOM     29   O  BDP C   2      34.104  42.122   9.7410  0.00  0.00     0.000 O
ATOM     31  HD  BDP C   2      34.499  41.649  10.3500  0.00  0.00     0.000 HD
ATOM     31   O  BDP C   2      35.566  39.902   9.1760  0.00  0.00     0.000 O
ATOM     33  HD  BDP C   2      35.962  39.429   9.7840  0.00  0.00     0.000 HD
BRANCH 27 33
ATOM     33   C  BDP C   2      36.468  41.789   4.7250  0.00  0.00     0.000 C
ATOM     34   O  BDP C   2      35.812  41.018   3.9840  0.00  0.00     0.000 OA
ATOM     35   O  BDP C   2      37.476  42.324   4.2940  0.00  0.00     0.000 OA
ENDBRANCH 27 33
BRANCH 23 36
ATOM     36  O4  SGN C   3      33.299  43.719   7.4350  0.00  0.00     0.000 O
BRANCH 36 40
ATOM     37  C1  SGN C   3      31.731  47.576   7.1220  0.00  0.00     0.000 C
ATOM     38  C2  SGN C   3      32.450  46.996   5.8940  0.00  0.00     0.000 C
ATOM     39  C3  SGN C   3      32.564  45.483   6.0090  0.00  0.00     0.000 C
ATOM     40  C4  SGN C   3      33.269  45.143   7.3050  0.00  0.00     0.000 C
ATOM     41  C5  SGN C   3      32.509  45.771   8.4520  0.00  0.00     0.000 C
ATOM     42  O5  SGN C   3      32.459  47.196   8.2790  0.00  0.00     0.000 O
ATOM     43   O  SGN C   3      33.284  44.980   4.8900  0.00  0.00     0.000 O
ATOM     45  HD  SGN C   3      33.387  44.452   5.5690  0.00  0.00     0.000 HD
BRANCH 38 47
ATOM     45   N  SGN C   3      32.954  47.632   4.6630  0.00  0.00     0.000 N
ATOM     47  HD  SGN C   3      32.988  46.969   5.2190  0.00  0.00     0.000 HD
ATOM     47   S  SGN C   3      31.999  48.799   4.1600  0.00  0.00     0.000 S
ATOM     48   O  SGN C   3      30.740  48.293   3.7410  0.00  0.00     0.000 OA
ATOM     49   O  SGN C   3      31.983  49.786   5.1900  0.00  0.00     0.000 OA
ATOM     50   O  SGN C   3      32.708  49.271   2.9720  0.00  0.00     0.000 OA
ENDBRANCH 38 47
BRANCH 41 51
ATOM     51   C  SGN C   3      33.108  45.503   9.8060  0.00  0.00     0.000 C
ATOM     52   O  SGN C   3      31.609  43.522  12.5830  0.00  0.00     0.000 OA
ATOM     53   O  SGN C   3      33.905  43.760  11.9470  0.00  0.00     0.000 OA
ATOM     54   O  SGN C   3      32.664  45.651  12.7530  0.00  0.00     0.000 OA
ATOM     55   O  SGN C   3      32.234  44.669  10.5340  0.00  0.00     0.000 O
ATOM     56   S  SGN C   3      32.642  44.375  12.1010  0.00  0.00     0.000 S
ENDBRANCH 41 51
BRANCH 37 57
ATOM     57  O4  IDS C   4      30.448  47.164   7.2740  0.00  0.00     0.000 O
BRANCH 57 61
ATOM     58  C1  IDS C   4      26.712  47.851   7.4590  0.00  0.00     0.000 C
ATOM     59  C2  IDS C   4      27.520  48.554   6.4160  0.00  0.00     0.000 C
ATOM     60  C3  IDS C   4      28.885  49.012   6.9340  0.00  0.00     0.000 C
ATOM     61  C4  IDS C   4      29.575  48.098   7.9370  0.00  0.00     0.000 C
ATOM     62  C5  IDS C   4      28.544  47.364   8.8020  0.00  0.00     0.000 C
ATOM     63  O5  IDS C   4      27.496  46.811   8.0190  0.00  0.00     0.000 O
ATOM     64   O  IDS C   4      28.647  50.260   7.5590  0.00  0.00     0.000 O
ATOM     66  HD  IDS C   4      28.774  50.200   8.4140  0.00  0.00     0.000 HD
BRANCH 59 66
ATOM     66   O  IDS C   4      27.785  47.682   5.2560  0.00  0.00     0.000 O
ATOM     67   S  IDS C   4      27.058  48.070   3.8940  0.00  0.00     0.000 S
ATOM     68   O  IDS C   4      27.645  49.346   3.5610  0.00  0.00     0.000 OA
ATOM     69   O  IDS C   4      27.379  46.993   2.9790  0.00  0.00     0.000 OA
ATOM     70   O  IDS C   4      25.638  48.192   4.1840  0.00  0.00     0.000 OA
ENDBRANCH 59 66
BRANCH 62 71
ATOM     71   C  IDS C   4      29.135  46.200   9.5740  0.00  0.00     0.000 C
ATOM     72   O  IDS C   4      29.770  46.402  10.5920  0.00  0.00     0.000 OA
ATOM     73   O  IDS C   4      29.043  45.056   9.0860  0.00  0.00     0.000 OA
ENDBRANCH 62 71
BRANCH 58 74
ATOM     74  O4  SGN C   5      26.004  48.670   8.2880  0.00  0.00     0.000 O
BRANCH 74 78
ATOM     75  C1  SGN C   5      22.450  49.256  10.4020  0.00  0.00     0.000 C
ATOM     76  C2  SGN C   5      23.443  48.251  11.0150  0.00  0.00     0.000 C
ATOM     77  C3  SGN C   5      24.821  48.377  10.3530  0.00  0.00     0.000 C
ATOM     78  C4  SGN C   5      24.714  48.394   8.8340  0.00  0.00     0.000 C
ATOM     79  C5  SGN C   5      23.713  49.458   8.4080  0.00  0.00     0.000 C
ATOM     80  O5  SGN C   5      22.414  49.160   8.9840  0.00  0.00     0.000 O
ATOM     81   O  SGN C   5      25.642  47.297  10.7840  0.00  0.00     0.000 O
ATOM     83  HD  SGN C   5      25.602  46.990  11.5930  0.00  0.00     0.000 HD
BRANCH 76 85
ATOM     83   N  SGN C   5      22.501  48.330  12.1380  0.00  0.00     0.000 N
ATOM     85  HD  SGN C   5      22.305  48.499  12.9650  0.00  0.00     0.000 HD
ATOM     85   S  SGN C   5      22.709  47.912  13.6800  0.00  0.00     0.000 S
ATOM     86   O  SGN C   5      21.541  48.203  14.4360  0.00  0.00     0.000 OA
ATOM     87   O  SGN C   5      23.168  46.569  13.6910  0.00  0.00     0.000 OA
ATOM     88   O  SGN C   5      23.810  48.927  13.9790  0.00  0.00     0.000 OA
ENDBRANCH 76 85
BRANCH 79 89
ATOM     89   C  SGN C   5      23.553  49.569   6.9050  0.00  0.00     0.000 C
ATOM     90   O  SGN C   5      22.418  50.414   6.5950  0.00  0.00     0.000 O
ATOM     91   S  SGN C   5      22.506  51.270   5.2400  0.00  0.00     0.000 S
ATOM     92   O  SGN C   5      23.752  51.990   5.2950  0.00  0.00     0.000 OA
ATOM     93   O  SGN C   5      22.458  50.337   4.1450  0.00  0.00     0.000 OA
ATOM     94   O  SGN C   5      21.350  52.122   5.3120  0.00  0.00     0.000 OA
ENDBRANCH 79 89
BRANCH 75 95
ATOM     95  O4  BDP C   6      22.900  50.493  10.7670  0.00  0.00     0.000 O
BRANCH 95 99
ATOM     96  C1  BDP C   6      20.132  53.631  11.7380  0.00  0.00     0.000 C
ATOM     97  C2  BDP C   6      19.599  52.356  11.1490  0.00  0.00     0.000 C
ATOM     98  C3  BDP C   6      20.583  51.177  11.1940  0.00  0.00     0.000 C
ATOM     99  C4  BDP C   6      21.956  51.582  10.6780  0.00  0.00     0.000 C
ATOM    100  C5  BDP C   6      22.374  52.883  11.4030  0.00  0.00     0.000 C
ATOM    101  O5  BDP C   6      21.347  53.818  11.0360  0.00  0.00     0.000 O
BRANCH 100 102
ATOM    102   C  BDP C   6      23.692  53.424  10.9120  0.00  0.00     0.000 C
ATOM    103   O  BDP C   6      23.764  54.381  10.1270  0.00  0.00     0.000 OA
ATOM    104   O  BDP C   6      24.715  52.876  11.3390  0.00  0.00     0.000 OA
ENDBRANCH 100 102
ENDBRANCH 95 99
ENDBRANCH 75 95
ENDBRANCH 74 78
ENDBRANCH 58 74
ENDBRANCH 57 61
ENDBRANCH 37 57
ENDBRANCH 36 40
ENDBRANCH 23 36
ENDBRANCH 22 26
ENDBRANCH 1 22
TORSDOF 20
ENDMDL
MODEL 47
REMARK VINA RESULT:      -2.6     12.884     20.372
ROOT
ATOM      1  C1  NGY C   1      11.410  47.882  32.3110  0.00  0.00     0.000 C
ATOM      2  C2  NGY C   1      10.162  48.736  32.4810  0.00  0.00     0.000 C
ATOM      3  C3  NGY C   1      10.242  49.973  31.5920  0.00  0.00     0.000 C
ATOM      4  C4  NGY C   1      11.536  50.700  31.9050  0.00  0.00     0.000 C
ATOM      5  C5  NGY C   1      12.706  49.764  31.6150  0.00  0.00     0.000 C
ATOM      6  O5  NGY C   1      12.601  48.617  32.4980  0.00  0.00     0.000 O
ATOM      7   O  NGY C   1       9.103  50.789  31.8220  0.00  0.00     0.000 O
ATOM      9  HD  NGY C   1       8.604  51.012  32.4940  0.00  0.00     0.000 HD
ATOM      9   O  NGY C   1      11.654  51.884  31.1290  0.00  0.00     0.000 O
ATOM     11  HD  NGY C   1      11.156  52.107  31.8010  0.00  0.00     0.000 HD
ENDROOT
BRANCH 2 13
ATOM     11   N  NGY C   1       8.809  48.928  32.9500  0.00  0.00     0.000 N
ATOM     13  HD  NGY C   1       8.513  48.122  32.8370  0.00  0.00     0.000 HD
ATOM     13   C  NGY C   1       7.928  47.929  32.9660  0.00  0.00     0.000 C
ATOM     14   O  NGY C   1       8.188  46.842  32.4480  0.00  0.00     0.000 OA
ATOM     15   C  NGY C   1       6.628  48.190  33.6640  0.00  0.00     0.000 C
ENDBRANCH 2 13
BRANCH 5 16
ATOM     16   C  NGY C   1      14.061  50.344  31.8670  0.00  0.00     0.000 C
ATOM     17   O  NGY C   1      14.840  52.601  34.6520  0.00  0.00     0.000 OA
ATOM     18   O  NGY C   1      13.954  51.337  32.8910  0.00  0.00     0.000 O
ATOM     19   S  NGY C   1      15.299  51.731  33.5990  0.00  0.00     0.000 S
ATOM     20   O  NGY C   1      16.104  52.424  32.6280  0.00  0.00     0.000 OA
ATOM     21   O  NGY C   1      15.871  50.466  34.0310  0.00  0.00     0.000 OA
ENDBRANCH 5 16
BRANCH 1 22
ATOM     22  O4  BDP C   2      11.359  47.273  31.1080  0.00  0.00     0.000 O
BRANCH 22 26
ATOM     23  C1  BDP C   2      12.393  44.139  28.6430  0.00  0.00     0.000 C
ATOM     24  C2  BDP C   2      11.986  43.756  30.0460  0.00  0.00     0.000 C
ATOM     25  C3  BDP C   2      11.296  44.919  30.7080  0.00  0.00     0.000 C
ATOM     26  C4  BDP C   2      12.167  46.168  30.6240  0.00  0.00     0.000 C
ATOM     27  C5  BDP C   2      12.663  46.357  29.1960  0.00  0.00     0.000 C
ATOM     28  O5  BDP C   2      13.385  45.203  28.6960  0.00  0.00     0.000 O
ATOM     29   O  BDP C   2      10.998  42.725  30.0630  0.00  0.00     0.000 O
ATOM     31  HD  BDP C   2      10.400  42.772  30.6870  0.00  0.00     0.000 HD
ATOM     31   O  BDP C   2      11.089  44.558  32.0680  0.00  0.00     0.000 O
ATOM     33  HD  BDP C   2      10.491  44.605  32.6920  0.00  0.00     0.000 HD
BRANCH 27 33
ATOM     33   C  BDP C   2      13.612  47.524  29.0650  0.00  0.00     0.000 C
ATOM     34   O  BDP C   2      14.792  47.473  29.4890  0.00  0.00     0.000 OA
ATOM     35   O  BDP C   2      13.199  48.554  28.5590  0.00  0.00     0.000 OA
ENDBRANCH 27 33
BRANCH 23 36
ATOM     36  O4  SGN C   3      12.908  43.137  27.8940  0.00  0.00     0.000 O
BRANCH 36 40
ATOM     37  C1  SGN C   3      13.311  41.598  24.0340  0.00  0.00     0.000 C
ATOM     38  C2  SGN C   3      14.316  42.671  24.4840  0.00  0.00     0.000 C
ATOM     39  C3  SGN C   3      14.315  42.798  26.0000  0.00  0.00     0.000 C
ATOM     40  C4  SGN C   3      12.906  43.097  26.4640  0.00  0.00     0.000 C
ATOM     41  C5  SGN C   3      11.985  42.008  25.9590  0.00  0.00     0.000 C
ATOM     42  O5  SGN C   3      12.030  41.962  24.5250  0.00  0.00     0.000 O
ATOM     43   O  SGN C   3      15.209  43.836  26.3840  0.00  0.00     0.000 O
ATOM     45  HD  SGN C   3      14.584  43.751  26.9770  0.00  0.00     0.000 HD
BRANCH 38 47
ATOM     45   N  SGN C   3      15.606  42.165  23.9820  0.00  0.00     0.000 N
ATOM     47  HD  SGN C   3      14.968  42.111  24.5650  0.00  0.00     0.000 HD
ATOM     47   S  SGN C   3      15.927  42.694  22.5180  0.00  0.00     0.000 S
ATOM     48   O  SGN C   3      15.011  42.172  21.5660  0.00  0.00     0.000 OA
ATOM     49   O  SGN C   3      16.017  44.114  22.6080  0.00  0.00     0.000 OA
ATOM     50   O  SGN C   3      17.231  42.086  22.2610  0.00  0.00     0.000 OA
ENDBRANCH 38 47
BRANCH 41 51
ATOM     51   C  SGN C   3      10.545  42.185  26.3590  0.00  0.00     0.000 C
ATOM     52   O  SGN C   3       8.662  40.246  28.9220  0.00  0.00     0.000 OA
ATOM     53   O  SGN C   3       8.461  42.549  28.3030  0.00  0.00     0.000 OA
ATOM     54   O  SGN C   3       7.921  40.816  26.7310  0.00  0.00     0.000 OA
ATOM     55   O  SGN C   3      10.247  41.281  27.3990  0.00  0.00     0.000 O
ATOM     56   S  SGN C   3       8.675  41.217  27.8820  0.00  0.00     0.000 S
ENDBRANCH 41 51
BRANCH 37 57
ATOM     57  O4  IDS C   4      13.590  40.344  24.4660  0.00  0.00     0.000 O
BRANCH 57 61
ATOM     58  C1  IDS C   4      14.647  36.741  23.8570  0.00  0.00     0.000 C
ATOM     59  C2  IDS C   4      15.383  37.835  23.1490  0.00  0.00     0.000 C
ATOM     60  C3  IDS C   4      14.456  38.948  22.6560  0.00  0.00     0.000 C
ATOM     61  C4  IDS C   4      13.266  39.287  23.5430  0.00  0.00     0.000 C
ATOM     62  C5  IDS C   4      12.771  38.042  24.2870  0.00  0.00     0.000 C
ATOM     63  O5  IDS C   4      13.843  37.317  24.8720  0.00  0.00     0.000 O
ATOM     64   O  IDS C   4      13.966  38.499  21.4060  0.00  0.00     0.000 O
ATOM     66  HD  IDS C   4      13.116  38.341  21.4520  0.00  0.00     0.000 HD
BRANCH 59 66
ATOM     66   O  IDS C   4      16.377  38.478  24.0300  0.00  0.00     0.000 O
ATOM     67   S  IDS C   4      17.892  38.032  23.8360  0.00  0.00     0.000 S
ATOM     68   O  IDS C   4      18.201  38.491  22.5030  0.00  0.00     0.000 OA
ATOM     69   O  IDS C   4      18.617  38.702  24.8970  0.00  0.00     0.000 OA
ATOM     70   O  IDS C   4      17.928  36.580  23.9250  0.00  0.00     0.000 OA
ENDBRANCH 59 66
BRANCH 62 71
ATOM     71   C  IDS C   4      11.827  38.368  25.4290  0.00  0.00     0.000 C
ATOM     72   O  IDS C   4      12.202  38.262  26.5800  0.00  0.00     0.000 OA
ATOM     73   O  IDS C   4      10.640  38.641  25.1580  0.00  0.00     0.000 OA
ENDBRANCH 62 71
BRANCH 58 74
ATOM     74  O4  SGN C   5      14.110  35.788  23.0420  0.00  0.00     0.000 O
BRANCH 74 78
ATOM     75  C1  SGN C   5      12.461  31.961  22.7740  0.00  0.00     0.000 C
ATOM     76  C2  SGN C   5      11.565  33.040  23.4110  0.00  0.00     0.000 C
ATOM     77  C3  SGN C   5      12.130  34.441  23.1440  0.00  0.00     0.000 C
ATOM     78  C4  SGN C   5      13.618  34.515  23.4570  0.00  0.00     0.000 C
ATOM     79  C5  SGN C   5      14.346  33.396  22.7280  0.00  0.00     0.000 C
ATOM     80  O5  SGN C   5      13.820  32.113  23.1600  0.00  0.00     0.000 O
ATOM     81   O  SGN C   5      11.407  35.387  23.9260  0.00  0.00     0.000 O
ATOM     83  HD  SGN C   5      10.556  35.307  24.0630  0.00  0.00     0.000 HD
BRANCH 76 85
ATOM     83   N  SGN C   5      10.397  32.456  22.7380  0.00  0.00     0.000 N
ATOM     85  HD  SGN C   5       9.546  32.396  22.5940  0.00  0.00     0.000 HD
ATOM     85   S  SGN C   5       8.956  32.067  23.3440  0.00  0.00     0.000 S
ATOM     86   O  SGN C   5       8.105  31.568  22.3200  0.00  0.00     0.000 OA
ATOM     87   O  SGN C   5       9.185  31.224  24.4620  0.00  0.00     0.000 OA
ATOM     88   O  SGN C   5       8.553  33.487  23.7340  0.00  0.00     0.000 OA
ENDBRANCH 76 85
BRANCH 79 89
ATOM     89   C  SGN C   5      15.844  33.399  22.9580  0.00  0.00     0.000 C
ATOM     90   O  SGN C   5      16.128  33.791  24.3230  0.00  0.00     0.000 O
ATOM     91   S  SGN C   5      17.439  33.156  24.9970  0.00  0.00     0.000 S
ATOM     92   O  SGN C   5      17.334  31.731  24.8260  0.00  0.00     0.000 OA
ATOM     93   O  SGN C   5      18.579  33.711  24.3120  0.00  0.00     0.000 OA
ATOM     94   O  SGN C   5      17.342  33.577  26.3690  0.00  0.00     0.000 OA
ENDBRANCH 79 89
BRANCH 75 95
ATOM     95  O4  BDP C   6      12.346  32.132  21.4230  0.00  0.00     0.000 O
BRANCH 95 99
ATOM     96  C1  BDP C   6      13.128  29.576  18.0610  0.00  0.00     0.000 C
ATOM     97  C2  BDP C   6      12.108  29.142  19.0750  0.00  0.00     0.000 C
ATOM     98  C3  BDP C   6      11.624  30.264  20.0070  0.00  0.00     0.000 C
ATOM     99  C4  BDP C   6      12.795  31.043  20.5880  0.00  0.00     0.000 C
ATOM    100  C5  BDP C   6      13.727  31.444  19.4210  0.00  0.00     0.000 C
ATOM    101  O5  BDP C   6      14.127  30.183  18.8610  0.00  0.00     0.000 O
BRANCH 100 102
ATOM    102   C  BDP C   6      14.970  32.159  19.8890  0.00  0.00     0.000 C
ATOM    103   O  BDP C   6      15.193  33.346  19.6130  0.00  0.00     0.000 OA
ATOM    104   O  BDP C   6      15.763  31.508  20.5790  0.00  0.00     0.000 OA
ENDBRANCH 100 102
ENDBRANCH 95 99
ENDBRANCH 75 95
ENDBRANCH 74 78
ENDBRANCH 58 74
ENDBRANCH 57 61
ENDBRANCH 37 57
ENDBRANCH 36 40
ENDBRANCH 23 36
ENDBRANCH 22 26
ENDBRANCH 1 22
TORSDOF 20
ENDMDL
MODEL 48
REMARK VINA RESULT:      -2.6     14.527     19.493
ROOT
ATOM      1  C1  NGY C   1      33.654  35.865  24.4150  0.00  0.00     0.000 C
ATOM      2  C2  NGY C   1      32.369  36.626  24.1170  0.00  0.00     0.000 C
ATOM      3  C3  NGY C   1      32.535  37.471  22.8570  0.00  0.00     0.000 C
ATOM      4  C4  NGY C   1      33.752  38.358  23.0370  0.00  0.00     0.000 C
ATOM      5  C5  NGY C   1      34.977  37.473  23.2450  0.00  0.00     0.000 C
ATOM      6  O5  NGY C   1      34.785  36.709  24.4630  0.00  0.00     0.000 O
ATOM      7   O  NGY C   1      31.351  38.225  22.6420  0.00  0.00     0.000 O
ATOM      9  HD  NGY C   1      30.758  38.632  23.1240  0.00  0.00     0.000 HD
ATOM      9   O  NGY C   1      33.940  39.197  21.9060  0.00  0.00     0.000 O
ATOM     11  HD  NGY C   1      33.348  39.604  22.3890  0.00  0.00     0.000 HD
ENDROOT
BRANCH 2 13
ATOM     11   N  NGY C   1      31.367  35.593  24.2330  0.00  0.00     0.000 N
ATOM     13  HD  NGY C   1      30.694  36.085  24.4700  0.00  0.00     0.000 HD
ATOM     13   C  NGY C   1      30.115  35.873  24.5920  0.00  0.00     0.000 C
ATOM     14   O  NGY C   1      29.799  37.000  24.9770  0.00  0.00     0.000 OA
ATOM     15   C  NGY C   1      29.117  34.760  24.4770  0.00  0.00     0.000 C
ENDBRANCH 2 13
BRANCH 5 16
ATOM     16   C  NGY C   1      36.267  38.208  23.4280  0.00  0.00     0.000 C
ATOM     17   O  NGY C   1      38.728  38.728  20.7580  0.00  0.00     0.000 OA
ATOM     18   O  NGY C   1      37.067  38.032  22.2560  0.00  0.00     0.000 O
ATOM     19   S  NGY C   1      38.234  39.067  22.0680  0.00  0.00     0.000 S
ATOM     20   O  NGY C   1      39.202  38.809  23.1020  0.00  0.00     0.000 OA
ATOM     21   O  NGY C   1      37.593  40.367  22.1840  0.00  0.00     0.000 OA
ENDBRANCH 5 16
BRANCH 1 22
ATOM     22  O4  BDP C   2      33.787  34.868  23.5150  0.00  0.00     0.000 O
BRANCH 22 26
ATOM     23  C1  BDP C   2      34.982  31.053  22.5250  0.00  0.00     0.000 C
ATOM     24  C2  BDP C   2      34.138  31.167  23.7730  0.00  0.00     0.000 C
ATOM     25  C3  BDP C   2      33.477  32.519  23.8140  0.00  0.00     0.000 C
ATOM     26  C4  BDP C   2      34.518  33.622  23.6550  0.00  0.00     0.000 C
ATOM     27  C5  BDP C   2      35.423  33.311  22.4700  0.00  0.00     0.000 C
ATOM     28  O5  BDP C   2      36.070  32.018  22.5820  0.00  0.00     0.000 O
ATOM     29   O  BDP C   2      33.039  30.255  23.7720  0.00  0.00     0.000 O
ATOM     31  HD  BDP C   2      32.303  30.535  24.1300  0.00  0.00     0.000 HD
ATOM     31   O  BDP C   2      32.838  32.629  25.0800  0.00  0.00     0.000 O
ATOM     33  HD  BDP C   2      32.102  32.909  25.4390  0.00  0.00     0.000 HD
BRANCH 27 33
ATOM     33   C  BDP C   2      36.539  34.316  22.3170  0.00  0.00     0.000 C
ATOM     34   O  BDP C   2      36.837  34.817  21.2060  0.00  0.00     0.000 OA
ATOM     35   O  BDP C   2      37.188  34.618  23.3050  0.00  0.00     0.000 OA
ENDBRANCH 27 33
BRANCH 23 36
ATOM     36  O4  SGN C   3      35.527  29.834  22.3040  0.00  0.00     0.000 O
BRANCH 36 40
ATOM     37  C1  SGN C   3      36.324  26.937  19.4050  0.00  0.00     0.000 C
ATOM     38  C2  SGN C   3      37.401  28.003  19.6650  0.00  0.00     0.000 C
ATOM     39  C3  SGN C   3      37.162  28.686  21.0030  0.00  0.00     0.000 C
ATOM     40  C4  SGN C   3      35.763  29.265  21.0130  0.00  0.00     0.000 C
ATOM     41  C5  SGN C   3      34.775  28.155  20.7280  0.00  0.00     0.000 C
ATOM     42  O5  SGN C   3      35.056  27.573  19.4450  0.00  0.00     0.000 O
ATOM     43   O  SGN C   3      38.136  29.706  21.1900  0.00  0.00     0.000 O
ATOM     45  HD  SGN C   3      37.414  29.905  21.6230  0.00  0.00     0.000 HD
BRANCH 38 47
ATOM     45   N  SGN C   3      37.766  27.526  18.3190  0.00  0.00     0.000 N
ATOM     47  HD  SGN C   3      37.194  27.926  18.8310  0.00  0.00     0.000 HD
ATOM     47   S  SGN C   3      39.306  27.143  18.2190  0.00  0.00     0.000 S
ATOM     48   O  SGN C   3      40.135  28.286  18.3650  0.00  0.00     0.000 OA
ATOM     49   O  SGN C   3      39.522  26.073  19.1380  0.00  0.00     0.000 OA
ATOM     50   O  SGN C   3      39.410  26.691  16.8320  0.00  0.00     0.000 OA
ENDBRANCH 38 47
BRANCH 41 51
ATOM     51   C  SGN C   3      33.338  28.600  20.7140  0.00  0.00     0.000 C
ATOM     52   O  SGN C   3      30.736  27.746  18.1880  0.00  0.00     0.000 OA
ATOM     53   O  SGN C   3      30.513  28.105  20.5440  0.00  0.00     0.000 OA
ATOM     54   O  SGN C   3      31.192  29.899  19.0990  0.00  0.00     0.000 OA
ATOM     55   O  SGN C   3      32.688  28.010  19.6100  0.00  0.00     0.000 O
ATOM     56   S  SGN C   3      31.137  28.486  19.3350  0.00  0.00     0.000 S
ENDBRANCH 41 51
BRANCH 37 57
ATOM     57  O4  IDS C   4      36.314  25.915  20.2950  0.00  0.00     0.000 O
BRANCH 57 61
ATOM     58  C1  IDS C   4      36.614  22.240  21.2330  0.00  0.00     0.000 C
ATOM     59  C2  IDS C   4      37.640  22.835  20.3220  0.00  0.00     0.000 C
ATOM     60  C3  IDS C   4      37.036  23.802  19.3000  0.00  0.00     0.000 C
ATOM     61  C4  IDS C   4      35.864  24.649  19.7750  0.00  0.00     0.000 C
ATOM     62  C5  IDS C   4      35.033  23.892  20.8190  0.00  0.00     0.000 C
ATOM     63  O5  IDS C   4      35.854  23.289  21.8090  0.00  0.00     0.000 O
ATOM     64   O  IDS C   4      36.592  22.986  18.2330  0.00  0.00     0.000 O
ATOM     66  HD  IDS C   4      35.728  22.999  18.1800  0.00  0.00     0.000 HD
BRANCH 59 66
ATOM     66   O  IDS C   4      38.654  23.600  21.0730  0.00  0.00     0.000 O
ATOM     67   S  IDS C   4      40.108  22.960  21.1580  0.00  0.00     0.000 S
ATOM     68   O  IDS C   4      40.554  22.972  19.7850  0.00  0.00     0.000 OA
ATOM     69   O  IDS C   4      40.848  23.833  22.0480  0.00  0.00     0.000 OA
ATOM     70   O  IDS C   4      39.953  21.604  21.6600  0.00  0.00     0.000 OA
ENDBRANCH 59 66
BRANCH 62 71
ATOM     71   C  IDS C   4      34.070  24.787  21.5750  0.00  0.00     0.000 C
ATOM     72   O  IDS C   4      33.011  25.107  21.0710  0.00  0.00     0.000 OA
ATOM     73   O  IDS C   4      34.436  25.263  22.6690  0.00  0.00     0.000 OA
ENDBRANCH 62 71
BRANCH 58 74
ATOM     74  O4  SGN C   5      35.969  21.146  20.7360  0.00  0.00     0.000 O
BRANCH 74 78
ATOM     75  C1  SGN C   5      34.223  17.462  21.6430  0.00  0.00     0.000 C
ATOM     76  C2  SGN C   5      33.288  18.685  21.6980  0.00  0.00     0.000 C
ATOM     77  C3  SGN C   5      33.942  19.899  21.0250  0.00  0.00     0.000 C
ATOM     78  C4  SGN C   5      35.370  20.107  21.5100  0.00  0.00     0.000 C
ATOM     79  C5  SGN C   5      36.151  18.810  21.3600  0.00  0.00     0.000 C
ATOM     80  O5  SGN C   5      35.516  17.767  22.1470  0.00  0.00     0.000 O
ATOM     81   O  SGN C   5      33.152  21.054  21.2870  0.00  0.00     0.000 O
ATOM     83  HD  SGN C   5      32.287  21.017  21.3150  0.00  0.00     0.000 HD
BRANCH 76 85
ATOM     83   N  SGN C   5      32.134  18.086  21.0160  0.00  0.00     0.000 N
ATOM     85  HD  SGN C   5      31.285  18.024  20.8550  0.00  0.00     0.000 HD
ATOM     85   S  SGN C   5      30.680  17.714  21.6000  0.00  0.00     0.000 S
ATOM     86   O  SGN C   5      29.849  17.192  20.5710  0.00  0.00     0.000 OA
ATOM     87   O  SGN C   5      30.884  16.897  22.7420  0.00  0.00     0.000 OA
ATOM     88   O  SGN C   5      30.270  19.143  21.9480  0.00  0.00     0.000 OA
ENDBRANCH 76 85
BRANCH 79 89
ATOM     89   C  SGN C   5      37.598  18.922  21.7960  0.00  0.00     0.000 C
ATOM     90   O  SGN C   5      37.800  18.171  23.0180  0.00  0.00     0.000 O
ATOM     91   S  SGN C   5      39.250  17.516  23.2300  0.00  0.00     0.000 S
ATOM     92   O  SGN C   5      39.529  16.752  22.0410  0.00  0.00     0.000 OA
ATOM     93   O  SGN C   5      40.181  18.599  23.4190  0.00  0.00     0.000 OA
ATOM     94   O  SGN C   5      39.078  16.704  24.4040  0.00  0.00     0.000 OA
ENDBRANCH 79 89
BRANCH 75 95
ATOM     95  O4  BDP C   6      34.313  17.122  20.3230  0.00  0.00     0.000 O
BRANCH 95 99
ATOM     96  C1  BDP C   6      34.883  13.288  18.4730  0.00  0.00     0.000 C
ATOM     97  C2  BDP C   6      34.103  13.362  19.7550  0.00  0.00     0.000 C
ATOM     98  C3  BDP C   6      33.629  14.775  20.1280  0.00  0.00     0.000 C
ATOM     99  C4  BDP C   6      34.764  15.783  20.0240  0.00  0.00     0.000 C
ATOM    100  C5  BDP C   6      35.438  15.604  18.6440  0.00  0.00     0.000 C
ATOM    101  O5  BDP C   6      35.907  14.246  18.6730  0.00  0.00     0.000 O
BRANCH 100 102
ATOM    102   C  BDP C   6      36.633  16.504  18.4590  0.00  0.00     0.000 C
ATOM    103   O  BDP C   6      37.687  16.344  19.0920  0.00  0.00     0.000 OA
ATOM    104   O  BDP C   6      36.524  17.414  17.6290  0.00  0.00     0.000 OA
ENDBRANCH 100 102
ENDBRANCH 95 99
ENDBRANCH 75 95
ENDBRANCH 74 78
ENDBRANCH 58 74
ENDBRANCH 57 61
ENDBRANCH 37 57
ENDBRANCH 36 40
ENDBRANCH 23 36
ENDBRANCH 22 26
ENDBRANCH 1 22
TORSDOF 20
ENDMDL
MODEL 49
REMARK VINA RESULT:      -2.5     16.484     23.031
ROOT
ATOM      1  C1  NGY C   1      25.620  17.987  44.3150  0.00  0.00     0.000 C
ATOM      2  C2  NGY C   1      24.540  18.254  45.3530  0.00  0.00     0.000 C
ATOM      3  C3  NGY C   1      23.157  18.131  44.7210  0.00  0.00     0.000 C
ATOM      4  C4  NGY C   1      23.100  19.053  43.5180  0.00  0.00     0.000 C
ATOM      5  C5  NGY C   1      24.176  18.628  42.5230  0.00  0.00     0.000 C
ATOM      6  O5  NGY C   1      25.471  18.784  43.1590  0.00  0.00     0.000 O
ATOM      7   O  NGY C   1      22.170  18.455  45.6900  0.00  0.00     0.000 O
ATOM      9  HD  NGY C   1      22.081  19.011  46.3470  0.00  0.00     0.000 HD
ATOM      9   O  NGY C   1      21.821  19.008  42.9040  0.00  0.00     0.000 O
ATOM     11  HD  NGY C   1      21.732  19.565  43.5610  0.00  0.00     0.000 HD
ENDROOT
BRANCH 2 13
ATOM     11   N  NGY C   1      24.118  17.524  46.5250  0.00  0.00     0.000 N
ATOM     13  HD  NGY C   1      24.646  17.887  47.1070  0.00  0.00     0.000 HD
ATOM     13   C  NGY C   1      24.668  17.741  47.7190  0.00  0.00     0.000 C
ATOM     14   O  NGY C   1      25.655  18.468  47.8430  0.00  0.00     0.000 OA
ATOM     15   C  NGY C   1      24.011  17.081  48.8930  0.00  0.00     0.000 C
ENDBRANCH 2 13
BRANCH 5 16
ATOM     16   C  NGY C   1      24.240  19.442  41.2700  0.00  0.00     0.000 C
ATOM     17   O  NGY C   1      22.584  18.509  38.1330  0.00  0.00     0.000 OA
ATOM     18   O  NGY C   1      23.673  18.683  40.1990  0.00  0.00     0.000 O
ATOM     19   S  NGY C   1      23.244  19.509  38.9330  0.00  0.00     0.000 S
ATOM     20   O  NGY C   1      24.449  19.997  38.3160  0.00  0.00     0.000 OA
ATOM     21   O  NGY C   1      22.391  20.563  39.4560  0.00  0.00     0.000 OA
ENDBRANCH 5 16
BRANCH 1 22
ATOM     22  O4  BDP C   2      25.639  16.667  44.0370  0.00  0.00     0.000 O
BRANCH 22 26
ATOM     23  C1  BDP C   2      27.684  13.294  42.8490  0.00  0.00     0.000 C
ATOM     24  C2  BDP C   2      28.410  14.183  43.8310  0.00  0.00     0.000 C
ATOM     25  C3  BDP C   2      27.439  15.152  44.4510  0.00  0.00     0.000 C
ATOM     26  C4  BDP C   2      26.676  15.904  43.3650  0.00  0.00     0.000 C
ATOM     27  C5  BDP C   2      26.135  14.919  42.3370  0.00  0.00     0.000 C
ATOM     28  O5  BDP C   2      27.175  14.097  41.7470  0.00  0.00     0.000 O
ATOM     29   O  BDP C   2      28.921  13.456  44.9480  0.00  0.00     0.000 O
ATOM     31  HD  BDP C   2      28.907  13.862  45.7130  0.00  0.00     0.000 HD
ATOM     31   O  BDP C   2      28.204  16.063  45.2310  0.00  0.00     0.000 O
ATOM     33  HD  BDP C   2      28.189  16.468  45.9960  0.00  0.00     0.000 HD
BRANCH 27 33
ATOM     33   C  BDP C   2      25.452  15.608  41.1800  0.00  0.00     0.000 C
ATOM     34   O  BDP C   2      24.251  15.390  40.8910  0.00  0.00     0.000 OA
ATOM     35   O  BDP C   2      26.107  16.373  40.4910  0.00  0.00     0.000 OA
ENDBRANCH 27 33
BRANCH 23 36
ATOM     36  O4  SGN C   3      28.422  12.291  42.3190  0.00  0.00     0.000 O
BRANCH 36 40
ATOM     37  C1  SGN C   3      28.205   8.455  40.6870  0.00  0.00     0.000 C
ATOM     38  C2  SGN C   3      27.054   9.427  40.3820  0.00  0.00     0.000 C
ATOM     39  C3  SGN C   3      27.479  10.860  40.6620  0.00  0.00     0.000 C
ATOM     40  C4  SGN C   3      27.953  10.959  42.0960  0.00  0.00     0.000 C
ATOM     41  C5  SGN C   3      29.065   9.956  42.3110  0.00  0.00     0.000 C
ATOM     42  O5  SGN C   3      28.582   8.631  42.0430  0.00  0.00     0.000 O
ATOM     43   O  SGN C   3      26.378  11.730  40.4280  0.00  0.00     0.000 O
ATOM     45  HD  SGN C   3      26.909  12.078  41.0170  0.00  0.00     0.000 HD
BRANCH 38 47
ATOM     45   N  SGN C   3      26.735   8.066  39.9130  0.00  0.00     0.000 N
ATOM     47  HD  SGN C   3      27.079   8.575  40.5230  0.00  0.00     0.000 HD
ATOM     47   S  SGN C   3      25.699   8.077  38.7080  0.00  0.00     0.000 S
ATOM     48   O  SGN C   3      24.428   8.556  39.1210  0.00  0.00     0.000 OA
ATOM     49   O  SGN C   3      26.329   8.775  37.6350  0.00  0.00     0.000 OA
ATOM     50   O  SGN C   3      25.566   6.651  38.4170  0.00  0.00     0.000 OA
ENDBRANCH 38 47
BRANCH 41 51
ATOM     51   C  SGN C   3      29.632   9.956  43.7050  0.00  0.00     0.000 C
ATOM     52   O  SGN C   3      27.740   9.739  46.9070  0.00  0.00     0.000 OA
ATOM     53   O  SGN C   3      29.900   8.871  46.3520  0.00  0.00     0.000 OA
ATOM     54   O  SGN C   3      29.517  11.240  46.3950  0.00  0.00     0.000 OA
ATOM     55   O  SGN C   3      28.574   9.808  44.6260  0.00  0.00     0.000 O
ATOM     56   S  SGN C   3      28.971   9.927  46.2190  0.00  0.00     0.000 S
ENDBRANCH 41 51
BRANCH 37 57
ATOM     57  O4  IDS C   4      29.307   8.624  39.9150  0.00  0.00     0.000 O
BRANCH 57 61
ATOM     58  C1  IDS C   4      31.885   7.748  37.2590  0.00  0.00     0.000 C
ATOM     59  C2  IDS C   4      30.485   8.053  36.8280  0.00  0.00     0.000 C
ATOM     60  C3  IDS C   4      29.434   7.459  37.7690  0.00  0.00     0.000 C
ATOM     61  C4  IDS C   4      29.782   7.437  39.2510  0.00  0.00     0.000 C
ATOM     62  C5  IDS C   4      31.293   7.264  39.4520  0.00  0.00     0.000 C
ATOM     63  O5  IDS C   4      32.038   8.135  38.6140  0.00  0.00     0.000 O
ATOM     64   O  IDS C   4      29.255   6.125  37.3330  0.00  0.00     0.000 O
ATOM     66  HD  IDS C   4      29.544   5.569  37.9320  0.00  0.00     0.000 HD
BRANCH 59 66
ATOM     66   O  IDS C   4      30.235   9.506  36.7850  0.00  0.00     0.000 O
ATOM     67   S  IDS C   4      29.805  10.112  35.3780  0.00  0.00     0.000 S
ATOM     68   O  IDS C   4      28.526   9.492  35.1310  0.00  0.00     0.000 OA
ATOM     69   O  IDS C   4      29.759  11.546  35.5870  0.00  0.00     0.000 OA
ATOM     70   O  IDS C   4      30.802   9.692  34.4060  0.00  0.00     0.000 OA
ENDBRANCH 59 66
BRANCH 62 71
ATOM     71   C  IDS C   4      31.743   7.574  40.8670  0.00  0.00     0.000 C
ATOM     72   O  IDS C   4      31.410   6.850  41.7860  0.00  0.00     0.000 OA
ATOM     73   O  IDS C   4      32.368   8.634  41.0730  0.00  0.00     0.000 OA
ENDBRANCH 62 71
BRANCH 58 74
ATOM     74  O4  SGN C   5      32.360   6.536  36.8540  0.00  0.00     0.000 O
BRANCH 74 78
ATOM     75  C1  SGN C   5      35.611   5.314  34.5340  0.00  0.00     0.000 C
ATOM     76  C2  SGN C   5      35.225   4.383  35.6980  0.00  0.00     0.000 C
ATOM     77  C3  SGN C   5      33.839   4.749  36.2480  0.00  0.00     0.000 C
ATOM     78  C4  SGN C   5      33.712   6.245  36.4960  0.00  0.00     0.000 C
ATOM     79  C5  SGN C   5      34.108   7.004  35.2390  0.00  0.00     0.000 C
ATOM     80  O5  SGN C   5      35.481   6.684  34.8910  0.00  0.00     0.000 O
ATOM     81   O  SGN C   5      33.613   4.021  37.4500  0.00  0.00     0.000 O
ATOM     83  HD  SGN C   5      33.892   3.207  37.5480  0.00  0.00     0.000 HD
BRANCH 76 85
ATOM     83   N  SGN C   5      35.189   2.938  35.4450  0.00  0.00     0.000 N
ATOM     85  HD  SGN C   5      35.490   2.133  35.5510  0.00  0.00     0.000 HD
ATOM     85   S  SGN C   5      36.405   1.914  35.1850  0.00  0.00     0.000 S
ATOM     86   O  SGN C   5      35.915   0.589  35.0310  0.00  0.00     0.000 OA
ATOM     87   O  SGN C   5      37.179   2.445  34.1210  0.00  0.00     0.000 OA
ATOM     88   O  SGN C   5      37.062   2.088  36.5520  0.00  0.00     0.000 OA
ENDBRANCH 76 85
BRANCH 79 89
ATOM     89   C  SGN C   5      33.990   8.509  35.3790  0.00  0.00     0.000 C
ATOM     90   O  SGN C   5      35.156   9.147  34.8020  0.00  0.00     0.000 O
ATOM     91   S  SGN C   5      34.936  10.597  34.1510  0.00  0.00     0.000 S
ATOM     92   O  SGN C   5      33.843  10.465  33.2240  0.00  0.00     0.000 OA
ATOM     93   O  SGN C   5      34.635  11.504  35.2300  0.00  0.00     0.000 OA
ATOM     94   O  SGN C   5      36.196  10.869  33.5160  0.00  0.00     0.000 OA
ENDBRANCH 79 89
BRANCH 75 95
ATOM     95  O4  BDP C   6      34.745   5.020  33.5190  0.00  0.00     0.000 O
BRANCH 95 99
ATOM     96  C1  BDP C   6      35.293   5.400  29.2760  0.00  0.00     0.000 C
ATOM     97  C2  BDP C   6      36.501   5.184  30.1430  0.00  0.00     0.000 C
ATOM     98  C3  BDP C   6      36.183   4.685  31.5600  0.00  0.00     0.000 C
ATOM     99  C4  BDP C   6      35.086   5.518  32.2070  0.00  0.00     0.000 C
ATOM    100  C5  BDP C   6      33.909   5.614  31.2080  0.00  0.00     0.000 C
ATOM    101  O5  BDP C   6      34.490   6.259  30.0640  0.00  0.00     0.000 O
BRANCH 100 102
ATOM    102   C  BDP C   6      32.788   6.487  31.7140  0.00  0.00     0.000 C
ATOM    103   O  BDP C   6      31.722   6.017  32.1370  0.00  0.00     0.000 OA
ATOM    104   O  BDP C   6      32.982   7.709  31.7010  0.00  0.00     0.000 OA
ENDBRANCH 100 102
ENDBRANCH 95 99
ENDBRANCH 75 95
ENDBRANCH 74 78
ENDBRANCH 58 74
ENDBRANCH 57 61
ENDBRANCH 37 57
ENDBRANCH 36 40
ENDBRANCH 23 36
ENDBRANCH 22 26
ENDBRANCH 1 22
TORSDOF 20
ENDMDL
MODEL 50
REMARK VINA RESULT:      -2.5     16.417     22.180
ROOT
ATOM      1  C1  NGY C   1      11.549  48.174  31.8110  0.00  0.00     0.000 C
ATOM      2  C2  NGY C   1      10.431  47.656  32.7040  0.00  0.00     0.000 C
ATOM      3  C3  NGY C   1       9.084  47.803  32.0050  0.00  0.00     0.000 C
ATOM      4  C4  NGY C   1       8.920  49.253  31.5880  0.00  0.00     0.000 C
ATOM      5  C5  NGY C   1      10.054  49.619  30.6340  0.00  0.00     0.000 C
ATOM      6  O5  NGY C   1      11.310  49.486  31.3480  0.00  0.00     0.000 O
ATOM      7   O  NGY C   1       8.052  47.381  32.8850  0.00  0.00     0.000 O
ATOM      9  HD  NGY C   1       7.883  47.419  33.7330  0.00  0.00     0.000 HD
ATOM      9   O  NGY C   1       7.665  49.462  30.9580  0.00  0.00     0.000 O
ATOM     11  HD  NGY C   1       7.497  49.499  31.8070  0.00  0.00     0.000 HD
ENDROOT
BRANCH 2 13
ATOM     11   N  NGY C   1      10.366  46.257  33.0560  0.00  0.00     0.000 N
ATOM     13  HD  NGY C   1      10.556  46.321  33.8990  0.00  0.00     0.000 HD
ATOM     13   C  NGY C   1      10.598  45.838  34.3000  0.00  0.00     0.000 C
ATOM     14   O  NGY C   1      11.015  46.610  35.1640  0.00  0.00     0.000 OA
ATOM     15   C  NGY C   1      10.299  44.399  34.5920  0.00  0.00     0.000 C
ENDBRANCH 2 13
BRANCH 5 16
ATOM     16   C  NGY C   1      10.026  51.024  30.1230  0.00  0.00     0.000 C
ATOM     17   O  NGY C   1      10.371  53.988  32.2580  0.00  0.00     0.000 OA
ATOM     18   O  NGY C   1       9.969  51.917  31.2390  0.00  0.00     0.000 O
ATOM     19   S  NGY C   1      10.378  53.404  30.9400  0.00  0.00     0.000 S
ATOM     20   O  NGY C   1       9.361  53.963  30.0880  0.00  0.00     0.000 OA
ATOM     21   O  NGY C   1      11.680  53.304  30.3010  0.00  0.00     0.000 OA
ENDBRANCH 5 16
BRANCH 1 22
ATOM     22  O4  BDP C   2      11.743  47.296  30.8040  0.00  0.00     0.000 O
BRANCH 22 26
ATOM     23  C1  BDP C   2      14.218  45.337  28.1590  0.00  0.00     0.000 C
ATOM     24  C2  BDP C   2      14.627  45.258  29.6110  0.00  0.00     0.000 C
ATOM     25  C3  BDP C   2      13.475  45.683  30.4830  0.00  0.00     0.000 C
ATOM     26  C4  BDP C   2      12.958  47.050  30.0470  0.00  0.00     0.000 C
ATOM     27  C5  BDP C   2      12.747  47.065  28.5390  0.00  0.00     0.000 C
ATOM     28  O5  BDP C   2      13.948  46.721  27.8020  0.00  0.00     0.000 O
ATOM     29   O  BDP C   2      14.891  43.919  30.0300  0.00  0.00     0.000 O
ATOM     31  HD  BDP C   2      14.664  43.715  30.8410  0.00  0.00     0.000 HD
ATOM     31   O  BDP C   2      13.968  45.749  31.8160  0.00  0.00     0.000 O
ATOM     33  HD  BDP C   2      13.742  45.546  32.6260  0.00  0.00     0.000 HD
BRANCH 27 33
ATOM     33   C  BDP C   2      12.327  48.423  28.0290  0.00  0.00     0.000 C
ATOM     34   O  BDP C   2      11.346  48.572  27.2620  0.00  0.00     0.000 OA
ATOM     35   O  BDP C   2      12.992  49.395  28.3510  0.00  0.00     0.000 OA
ENDBRANCH 27 33
BRANCH 23 36
ATOM     36  O4  SGN C   3      15.124  44.856  27.2750  0.00  0.00     0.000 O
BRANCH 36 40
ATOM     37  C1  SGN C   3      15.696  42.599  23.8100  0.00  0.00     0.000 C
ATOM     38  C2  SGN C   3      14.770  43.823  23.7200  0.00  0.00     0.000 C
ATOM     39  C3  SGN C   3      15.010  44.758  24.8960  0.00  0.00     0.000 C
ATOM     40  C4  SGN C   3      14.820  43.984  26.1830  0.00  0.00     0.000 C
ATOM     41  C5  SGN C   3      15.748  42.790  26.1750  0.00  0.00     0.000 C
ATOM     42  O5  SGN C   3      15.450  41.951  25.0480  0.00  0.00     0.000 O
ATOM     43   O  SGN C   3      14.101  45.850  24.8190  0.00  0.00     0.000 O
ATOM     45  HD  SGN C   3      14.322  45.707  25.6450  0.00  0.00     0.000 HD
BRANCH 38 47
ATOM     45   N  SGN C   3      14.365  43.023  22.5510  0.00  0.00     0.000 N
ATOM     47  HD  SGN C   3      14.434  43.090  23.4110  0.00  0.00     0.000 HD
ATOM     47   S  SGN C   3      14.291  43.897  21.2250  0.00  0.00     0.000 S
ATOM     48   O  SGN C   3      13.253  44.864  21.3000  0.00  0.00     0.000 OA
ATOM     49   O  SGN C   3      15.608  44.389  20.9860  0.00  0.00     0.000 OA
ATOM     50   O  SGN C   3      13.900  42.899  20.2320  0.00  0.00     0.000 OA
ENDBRANCH 38 47
BRANCH 41 51
ATOM     51   C  SGN C   3      15.660  41.934  27.4090  0.00  0.00     0.000 C
ATOM     52   O  SGN C   3      18.316  41.377  29.9620  0.00  0.00     0.000 OA
ATOM     53   O  SGN C   3      15.940  41.489  30.2340  0.00  0.00     0.000 OA
ATOM     54   O  SGN C   3      16.936  39.721  28.9500  0.00  0.00     0.000 OA
ATOM     55   O  SGN C   3      16.870  42.041  28.1250  0.00  0.00     0.000 O
ATOM     56   S  SGN C   3      17.029  41.064  29.4400  0.00  0.00     0.000 S
ENDBRANCH 41 51
BRANCH 37 57
ATOM     57  O4  IDS C   4      17.019  42.883  23.7350  0.00  0.00     0.000 O
BRANCH 57 61
ATOM     58  C1  IDS C   4      20.431  42.631  22.0730  0.00  0.00     0.000 C
ATOM     59  C2  IDS C   4      19.232  42.881  21.2160  0.00  0.00     0.000 C
ATOM     60  C3  IDS C   4      18.011  42.069  21.6540  0.00  0.00     0.000 C
ATOM     61  C4  IDS C   4      17.839  41.852  23.1520  0.00  0.00     0.000 C
ATOM     62  C5  IDS C   4      19.202  41.776  23.8490  0.00  0.00     0.000 C
ATOM     63  O5  IDS C   4      20.068  42.821  23.4300  0.00  0.00     0.000 O
ATOM     64   O  IDS C   4      18.162  40.805  21.0360  0.00  0.00     0.000 O
ATOM     66  HD  IDS C   4      18.302  40.191  21.6310  0.00  0.00     0.000 HD
BRANCH 59 66
ATOM     66   O  IDS C   4      18.825  44.299  21.2520  0.00  0.00     0.000 O
ATOM     67   S  IDS C   4      19.035  45.133  19.9120  0.00  0.00     0.000 S
ATOM     68   O  IDS C   4      18.132  44.495  18.9840  0.00  0.00     0.000 OA
ATOM     69   O  IDS C   4      18.688  46.496  20.2630  0.00  0.00     0.000 OA
ATOM     70   O  IDS C   4      20.424  44.963  19.5130  0.00  0.00     0.000 OA
ENDBRANCH 59 66
BRANCH 62 71
ATOM     71   C  IDS C   4      19.106  41.905  25.3580  0.00  0.00     0.000 C
ATOM     72   O  IDS C   4      18.934  40.917  26.0450  0.00  0.00     0.000 OA
ATOM     73   O  IDS C   4      19.103  43.048  25.8570  0.00  0.00     0.000 OA
ENDBRANCH 62 71
BRANCH 58 74
ATOM     74  O4  SGN C   5      21.167  41.537  21.7270  0.00  0.00     0.000 O
BRANCH 74 78
ATOM     75  C1  SGN C   5      25.114  40.223  21.3500  0.00  0.00     0.000 C
ATOM     76  C2  SGN C   5      24.252  39.483  22.3910  0.00  0.00     0.000 C
ATOM     77  C3  SGN C   5      22.766  39.813  22.1970  0.00  0.00     0.000 C
ATOM     78  C4  SGN C   5      22.537  41.312  22.0600  0.00  0.00     0.000 C
ATOM     79  C5  SGN C   5      23.449  41.867  20.9760  0.00  0.00     0.000 C
ATOM     80  O5  SGN C   5      24.834  41.617  21.3320  0.00  0.00     0.000 O
ATOM     81   O  SGN C   5      22.030  39.294  23.3000  0.00  0.00     0.000 O
ATOM     83  HD  SGN C   5      22.239  38.539  23.6710  0.00  0.00     0.000 HD
BRANCH 76 85
ATOM     83   N  SGN C   5      24.495  38.048  22.2020  0.00  0.00     0.000 N
ATOM     85  HD  SGN C   5      24.656  37.251  22.5020  0.00  0.00     0.000 HD
ATOM     85   S  SGN C   5      25.544  37.081  22.9500  0.00  0.00     0.000 S
ATOM     86   O  SGN C   5      25.408  35.745  22.4830  0.00  0.00     0.000 OA
ATOM     87   O  SGN C   5      26.825  37.680  22.8300  0.00  0.00     0.000 OA
ATOM     88   O  SGN C   5      24.939  37.227  24.3440  0.00  0.00     0.000 OA
ENDBRANCH 76 85
BRANCH 79 89
ATOM     89   C  SGN C   5      23.278  43.355  20.7460  0.00  0.00     0.000 C
ATOM     90   O  SGN C   5      23.754  44.087  21.9020  0.00  0.00     0.000 O
ATOM     91   S  SGN C   5      24.380  45.539  21.6280  0.00  0.00     0.000 S
ATOM     92   O  SGN C   5      25.385  45.363  20.6130  0.00  0.00     0.000 OA
ATOM     93   O  SGN C   5      23.302  46.390  21.1930  0.00  0.00     0.000 OA
ATOM     94   O  SGN C   5      24.917  45.914  22.9070  0.00  0.00     0.000 OA
ENDBRANCH 79 89
BRANCH 75 95
ATOM     95  O4  BDP C   6      24.790  39.674  20.1420  0.00  0.00     0.000 O
BRANCH 95 99
ATOM     96  C1  BDP C   6      27.266  38.924  16.7130  0.00  0.00     0.000 C
ATOM     97  C2  BDP C   6      27.893  38.888  18.0780  0.00  0.00     0.000 C
ATOM     98  C3  BDP C   6      26.888  38.784  19.2350  0.00  0.00     0.000 C
ATOM     99  C4  BDP C   6      25.767  39.802  19.0860  0.00  0.00     0.000 C
ATOM    100  C5  BDP C   6      25.207  39.688  17.6480  0.00  0.00     0.000 C
ATOM    101  O5  BDP C   6      26.342  39.991  16.8210  0.00  0.00     0.000 O
BRANCH 100 102
ATOM    102   C  BDP C   6      24.136  40.709  17.3590  0.00  0.00     0.000 C
ATOM    103   O  BDP C   6      24.357  41.928  17.3920  0.00  0.00     0.000 OA
ATOM    104   O  BDP C   6      23.014  40.275  17.0710  0.00  0.00     0.000 OA
ENDBRANCH 100 102
ENDBRANCH 95 99
ENDBRANCH 75 95
ENDBRANCH 74 78
ENDBRANCH 58 74
ENDBRANCH 57 61
ENDBRANCH 37 57
ENDBRANCH 36 40
ENDBRANCH 23 36
ENDBRANCH 22 26
ENDBRANCH 1 22
TORSDOF 20
ENDMDL
MODEL 51
REMARK VINA RESULT:      -2.3     13.426     20.764
ROOT
ATOM      1  C1  NGY C   1      11.213  48.536  32.9720  0.00  0.00     0.000 C
ATOM      2  C2  NGY C   1      10.371  49.804  32.9540  0.00  0.00     0.000 C
ATOM      3  C3  NGY C   1      11.074  50.895  32.1530  0.00  0.00     0.000 C
ATOM      4  C4  NGY C   1      12.466  51.084  32.7260  0.00  0.00     0.000 C
ATOM      5  C5  NGY C   1      13.228  49.768  32.6080  0.00  0.00     0.000 C
ATOM      6  O5  NGY C   1      12.537  48.769  33.4030  0.00  0.00     0.000 O
ATOM      7   O  NGY C   1      10.305  52.087  32.2120  0.00  0.00     0.000 O
ATOM      9  HD  NGY C   1       9.813  52.500  32.7940  0.00  0.00     0.000 HD
ATOM      9   O  NGY C   1      13.162  52.115  32.0410  0.00  0.00     0.000 O
ATOM     11  HD  NGY C   1      12.670  52.528  32.6220  0.00  0.00     0.000 HD
ENDROOT
BRANCH 2 13
ATOM     11   N  NGY C   1       9.065  49.322  32.5700  0.00  0.00     0.000 N
ATOM     13  HD  NGY C   1       8.579  49.903  32.9900  0.00  0.00     0.000 HD
ATOM     13   C  NGY C   1       7.950  49.917  32.9910  0.00  0.00     0.000 C
ATOM     14   O  NGY C   1       7.986  50.810  33.8390  0.00  0.00     0.000 OA
ATOM     15   C  NGY C   1       6.667  49.462  32.3640  0.00  0.00     0.000 C
ENDBRANCH 2 13
BRANCH 5 16
ATOM     16   C  NGY C   1      14.630  49.797  33.1260  0.00  0.00     0.000 C
ATOM     17   O  NGY C   1      15.512  49.488  36.6740  0.00  0.00     0.000 OA
ATOM     18   O  NGY C   1      14.592  49.870  34.5540  0.00  0.00     0.000 O
ATOM     19   S  NGY C   1      15.918  49.464  35.2910  0.00  0.00     0.000 S
ATOM     20   O  NGY C   1      16.898  50.474  34.9900  0.00  0.00     0.000 OA
ATOM     21   O  NGY C   1      16.250  48.154  34.7540  0.00  0.00     0.000 OA
ENDBRANCH 5 16
BRANCH 1 22
ATOM     22  O4  BDP C   2      11.159  47.962  31.7510  0.00  0.00     0.000 O
BRANCH 22 26
ATOM     23  C1  BDP C   2      11.365  44.485  29.5520  0.00  0.00     0.000 C
ATOM     24  C2  BDP C   2      10.981  44.315  31.0030  0.00  0.00     0.000 C
ATOM     25  C3  BDP C   2      10.589  45.648  31.5820  0.00  0.00     0.000 C
ATOM     26  C4  BDP C   2      11.690  46.675  31.3380  0.00  0.00     0.000 C
ATOM     27  C5  BDP C   2      12.119  46.636  29.8780  0.00  0.00     0.000 C
ATOM     28  O5  BDP C   2      12.555  45.318  29.4570  0.00  0.00     0.000 O
ATOM     29   O  BDP C   2       9.807  43.519  31.1650  0.00  0.00     0.000 O
ATOM     31  HD  BDP C   2       9.273  43.743  31.8090  0.00  0.00     0.000 HD
ATOM     31   O  BDP C   2      10.402  45.454  32.9790  0.00  0.00     0.000 O
ATOM     33  HD  BDP C   2       9.868  45.678  33.6220  0.00  0.00     0.000 HD
BRANCH 27 33
ATOM     33   C  BDP C   2      13.277  47.562  29.5910  0.00  0.00     0.000 C
ATOM     34   O  BDP C   2      13.170  48.541  28.8140  0.00  0.00     0.000 OA
ATOM     35   O  BDP C   2      14.355  47.321  30.1090  0.00  0.00     0.000 OA
ENDBRANCH 27 33
BRANCH 23 36
ATOM     36  O4  SGN C   3      11.614  43.337  28.8800  0.00  0.00     0.000 O
BRANCH 36 40
ATOM     37  C1  SGN C   3      11.075  41.242  25.3090  0.00  0.00     0.000 C
ATOM     38  C2  SGN C   3      12.042  42.437  25.2970  0.00  0.00     0.000 C
ATOM     39  C3  SGN C   3      12.456  42.801  26.7150  0.00  0.00     0.000 C
ATOM     40  C4  SGN C   3      11.212  43.073  27.5330  0.00  0.00     0.000 C
ATOM     41  C5  SGN C   3      10.312  41.859  27.4700  0.00  0.00     0.000 C
ATOM     42  O5  SGN C   3       9.954  41.590  26.1060  0.00  0.00     0.000 O
ATOM     43   O  SGN C   3      13.301  43.945  26.6770  0.00  0.00     0.000 O
ATOM     45  HD  SGN C   3      12.883  43.912  27.4350  0.00  0.00     0.000 HD
BRANCH 38 47
ATOM     45   N  SGN C   3      13.207  41.991  24.5120  0.00  0.00     0.000 N
ATOM     47  HD  SGN C   3      12.773  41.980  25.2620  0.00  0.00     0.000 HD
ATOM     47   S  SGN C   3      13.017  42.259  22.9570  0.00  0.00     0.000 S
ATOM     48   O  SGN C   3      11.972  41.463  22.4180  0.00  0.00     0.000 OA
ATOM     49   O  SGN C   3      12.894  43.671  22.7970  0.00  0.00     0.000 OA
ATOM     50   O  SGN C   3      14.280  41.764  22.4130  0.00  0.00     0.000 OA
ENDBRANCH 38 47
BRANCH 41 51
ATOM     51   C  SGN C   3       9.034  41.999  28.2520  0.00  0.00     0.000 C
ATOM     52   O  SGN C   3       5.668  40.699  27.3220  0.00  0.00     0.000 OA
ATOM     53   O  SGN C   3       6.666  40.938  29.4860  0.00  0.00     0.000 OA
ATOM     54   O  SGN C   3       6.184  42.873  28.1480  0.00  0.00     0.000 OA
ATOM     55   O  SGN C   3       8.005  41.319  27.5680  0.00  0.00     0.000 O
ATOM     56   S  SGN C   3       6.489  41.474  28.1900  0.00  0.00     0.000 S
ENDBRANCH 41 51
BRANCH 37 57
ATOM     57  O4  IDS C   4      11.603  40.093  25.7990  0.00  0.00     0.000 O
BRANCH 57 61
ATOM     58  C1  IDS C   4      12.726  36.538  25.0440  0.00  0.00     0.000 C
ATOM     59  C2  IDS C   4      12.802  37.561  23.9560  0.00  0.00     0.000 C
ATOM     60  C3  IDS C   4      11.595  38.502  23.9430  0.00  0.00     0.000 C
ATOM     61  C4  IDS C   4      11.011  38.879  25.2980  0.00  0.00     0.000 C
ATOM     62  C5  IDS C   4      11.179  37.732  26.3010  0.00  0.00     0.000 C
ATOM     63  O5  IDS C   4      12.496  37.200  26.2760  0.00  0.00     0.000 O
ATOM     64   O  IDS C   4      10.599  37.820  23.2030  0.00  0.00     0.000 O
ATOM     66  HD  IDS C   4       9.936  37.603  23.7160  0.00  0.00     0.000 HD
BRANCH 59 66
ATOM     66   O  IDS C   4      13.996  38.416  24.0980  0.00  0.00     0.000 O
ATOM     67   S  IDS C   4      15.166  38.183  23.0440  0.00  0.00     0.000 S
ATOM     68   O  IDS C   4      14.561  38.569  21.7910  0.00  0.00     0.000 OA
ATOM     69   O  IDS C   4      16.246  39.041  23.4900  0.00  0.00     0.000 OA
ATOM     70   O  IDS C   4      15.491  36.766  23.0680  0.00  0.00     0.000 OA
ENDBRANCH 59 66
BRANCH 62 71
ATOM     71   C  IDS C   4      10.936  38.157  27.7360  0.00  0.00     0.000 C
ATOM     72   O  IDS C   4      11.847  38.135  28.5410  0.00  0.00     0.000 OA
ATOM     73   O  IDS C   4       9.770  38.424  28.0870  0.00  0.00     0.000 OA
ENDBRANCH 62 71
BRANCH 58 74
ATOM     74  O4  SGN C   5      11.997  35.427  24.7390  0.00  0.00     0.000 O
BRANCH 74 78
ATOM     75  C1  SGN C   5      11.698  31.271  25.0210  0.00  0.00     0.000 C
ATOM     76  C2  SGN C   5      11.417  32.058  26.3150  0.00  0.00     0.000 C
ATOM     77  C3  SGN C   5      11.221  33.549  26.0110  0.00  0.00     0.000 C
ATOM     78  C4  SGN C   5      12.322  34.087  25.1080  0.00  0.00     0.000 C
ATOM     79  C5  SGN C   5      12.442  33.206  23.8740  0.00  0.00     0.000 C
ATOM     80  O5  SGN C   5      12.763  31.848  24.2760  0.00  0.00     0.000 O
ATOM     81   O  SGN C   5      11.184  34.269  27.2380  0.00  0.00     0.000 O
ATOM     83  HD  SGN C   5      10.808  33.941  27.9460  0.00  0.00     0.000 HD
BRANCH 76 85
ATOM     83   N  SGN C   5      10.927  31.631  27.6310  0.00  0.00     0.000 N
ATOM     85  HD  SGN C   5      10.762  31.027  28.2290  0.00  0.00     0.000 HD
ATOM     85   S  SGN C   5      10.054  30.336  28.0270  0.00  0.00     0.000 S
ATOM     86   O  SGN C   5       9.842  30.291  29.4330  0.00  0.00     0.000 OA
ATOM     87   O  SGN C   5       8.902  30.339  27.2000  0.00  0.00     0.000 OA
ATOM     88   O  SGN C   5      11.095  29.301  27.6080  0.00  0.00     0.000 OA
ENDBRANCH 76 85
BRANCH 79 89
ATOM     89   C  SGN C   5      13.501  33.675  22.8970  0.00  0.00     0.000 C
ATOM     90   O  SGN C   5      14.585  32.715  22.8500  0.00  0.00     0.000 O
ATOM     91   S  SGN C   5      15.359  32.569  21.4510  0.00  0.00     0.000 S
ATOM     92   O  SGN C   5      14.350  32.337  20.4510  0.00  0.00     0.000 OA
ATOM     93   O  SGN C   5      16.076  33.799  21.2340  0.00  0.00     0.000 OA
ATOM     94   O  SGN C   5      16.221  31.439  21.6670  0.00  0.00     0.000 OA
ENDBRANCH 79 89
BRANCH 75 95
ATOM     95  O4  BDP C   6      10.544  31.329  24.2920  0.00  0.00     0.000 O
BRANCH 95 99
ATOM     96  C1  BDP C   6       8.767  28.447  21.6490  0.00  0.00     0.000 C
ATOM     97  C2  BDP C   6       9.520  27.954  22.8530  0.00  0.00     0.000 C
ATOM     98  C3  BDP C   6       9.780  29.028  23.9210  0.00  0.00     0.000 C
ATOM     99  C4  BDP C   6      10.347  30.297  23.3010  0.00  0.00     0.000 C
ATOM    100  C5  BDP C   6       9.446  30.689  22.1060  0.00  0.00     0.000 C
ATOM    101  O5  BDP C   6       9.540  29.555  21.2280  0.00  0.00     0.000 O
BRANCH 100 102
ATOM    102   C  BDP C   6       9.959  31.896  21.3630  0.00  0.00     0.000 C
ATOM    103   O  BDP C   6      10.935  31.839  20.6020  0.00  0.00     0.000 OA
ATOM    104   O  BDP C   6       9.350  32.959  21.5360  0.00  0.00     0.000 OA
ENDBRANCH 100 102
ENDBRANCH 95 99
ENDBRANCH 75 95
ENDBRANCH 74 78
ENDBRANCH 58 74
ENDBRANCH 57 61
ENDBRANCH 37 57
ENDBRANCH 36 40
ENDBRANCH 23 36
ENDBRANCH 22 26
ENDBRANCH 1 22
TORSDOF 20
ENDMDL
MODEL 52
REMARK VINA RESULT:      -2.1      9.605     15.134
ROOT
ATOM      1  C1  NGY C   1      18.892  36.829  30.0900  0.00  0.00     0.000 C
ATOM      2  C2  NGY C   1      19.013  35.544  30.8980  0.00  0.00     0.000 C
ATOM      3  C3  NGY C   1      17.654  35.146  31.4640  0.00  0.00     0.000 C
ATOM      4  C4  NGY C   1      17.104  36.322  32.2500  0.00  0.00     0.000 C
ATOM      5  C5  NGY C   1      16.955  37.514  31.3090  0.00  0.00     0.000 C
ATOM      6  O5  NGY C   1      18.273  37.869  30.8150  0.00  0.00     0.000 O
ATOM      7   O  NGY C   1      17.805  33.988  32.2720  0.00  0.00     0.000 O
ATOM      9  HD  NGY C   1      18.394  33.666  32.8190  0.00  0.00     0.000 HD
ATOM      9   O  NGY C   1      15.849  36.001  32.8330  0.00  0.00     0.000 O
ATOM     11  HD  NGY C   1      16.438  35.678  33.3810  0.00  0.00     0.000 HD
ENDROOT
BRANCH 2 13
ATOM     11   N  NGY C   1      19.805  34.725  30.0110  0.00  0.00     0.000 N
ATOM     13  HD  NGY C   1      20.151  34.189  30.5960  0.00  0.00     0.000 HD
ATOM     13   C  NGY C   1      20.551  33.720  30.4680  0.00  0.00     0.000 C
ATOM     14   O  NGY C   1      20.707  33.542  31.6780  0.00  0.00     0.000 OA
ATOM     15   C  NGY C   1      21.161  32.814  29.4430  0.00  0.00     0.000 C
ENDBRANCH 2 13
BRANCH 5 16
ATOM     16   C  NGY C   1      16.411  38.756  31.9380  0.00  0.00     0.000 C
ATOM     17   O  NGY C   1      12.904  39.807  31.7000  0.00  0.00     0.000 OA
ATOM     18   O  NGY C   1      15.077  38.964  31.4660  0.00  0.00     0.000 O
ATOM     19   S  NGY C   1      14.194  39.935  32.3300  0.00  0.00     0.000 S
ATOM     20   O  NGY C   1      14.747  41.256  32.1840  0.00  0.00     0.000 OA
ATOM     21   O  NGY C   1      14.290  39.412  33.6830  0.00  0.00     0.000 OA
ENDBRANCH 5 16
BRANCH 1 22
ATOM     22  O4  BDP C   2      18.259  36.555  28.9300  0.00  0.00     0.000 O
BRANCH 22 26
ATOM     23  C1  BDP C   2      17.579  37.438  24.9650  0.00  0.00     0.000 C
ATOM     24  C2  BDP C   2      19.001  37.626  25.4380  0.00  0.00     0.000 C
ATOM     25  C3  BDP C   2      19.188  36.935  26.7630  0.00  0.00     0.000 C
ATOM     26  C4  BDP C   2      18.127  37.399  27.7560  0.00  0.00     0.000 C
ATOM     27  C5  BDP C   2      16.750  37.330  27.1090  0.00  0.00     0.000 C
ATOM     28  O5  BDP C   2      16.666  38.102  25.8840  0.00  0.00     0.000 O
ATOM     29   O  BDP C   2      19.948  36.982  24.5850  0.00  0.00     0.000 O
ATOM     31  HD  BDP C   2      20.640  36.632  24.9700  0.00  0.00     0.000 HD
ATOM     31   O  BDP C   2      20.484  37.286  27.2330  0.00  0.00     0.000 O
ATOM     33  HD  BDP C   2      21.176  36.936  27.6180  0.00  0.00     0.000 HD
BRANCH 27 33
ATOM     33   C  BDP C   2      15.663  37.869  28.0080  0.00  0.00     0.000 C
ATOM     34   O  BDP C   2      14.842  37.116  28.5850  0.00  0.00     0.000 OA
ATOM     35   O  BDP C   2      15.568  39.078  28.1430  0.00  0.00     0.000 OA
ENDBRANCH 27 33
BRANCH 23 36
ATOM     36  O4  SGN C   3      17.316  37.902  23.7210  0.00  0.00     0.000 O
BRANCH 36 40
ATOM     37  C1  SGN C   3      15.425  34.704  21.8160  0.00  0.00     0.000 C
ATOM     38  C2  SGN C   3      16.764  35.190  21.2370  0.00  0.00     0.000 C
ATOM     39  C3  SGN C   3      17.514  36.027  22.2620  0.00  0.00     0.000 C
ATOM     40  C4  SGN C   3      16.627  37.171  22.7030  0.00  0.00     0.000 C
ATOM     41  C5  SGN C   3      15.329  36.604  23.2340  0.00  0.00     0.000 C
ATOM     42  O5  SGN C   3      14.675  35.843  22.2070  0.00  0.00     0.000 O
ATOM     43   O  SGN C   3      18.718  36.512  21.6800  0.00  0.00     0.000 O
ATOM     45  HD  SGN C   3      18.451  37.054  22.3000  0.00  0.00     0.000 HD
BRANCH 38 47
ATOM     45   N  SGN C   3      16.209  34.536  20.0380  0.00  0.00     0.000 N
ATOM     47  HD  SGN C   3      16.175  35.190  20.6050  0.00  0.00     0.000 HD
ATOM     47   S  SGN C   3      17.193  33.437  19.4470  0.00  0.00     0.000 S
ATOM     48   O  SGN C   3      18.384  34.025  18.9430  0.00  0.00     0.000 OA
ATOM     49   O  SGN C   3      17.349  32.443  20.4580  0.00  0.00     0.000 OA
ATOM     50   O  SGN C   3      16.428  32.933  18.3090  0.00  0.00     0.000 OA
ENDBRANCH 38 47
BRANCH 41 51
ATOM     51   C  SGN C   3      14.353  37.645  23.7140  0.00  0.00     0.000 C
ATOM     52   O  SGN C   3      12.126  37.445  26.6930  0.00  0.00     0.000 OA
ATOM     53   O  SGN C   3      13.220  39.345  25.7330  0.00  0.00     0.000 OA
ATOM     54   O  SGN C   3      11.525  38.169  24.5050  0.00  0.00     0.000 OA
ATOM     55   O  SGN C   3      13.750  37.190  24.9040  0.00  0.00     0.000 O
ATOM     56   S  SGN C   3      12.542  38.125  25.5140  0.00  0.00     0.000 S
ENDBRANCH 41 51
BRANCH 37 57
ATOM     57  O4  IDS C   4      15.538  33.882  22.8880  0.00  0.00     0.000 O
BRANCH 57 61
ATOM     58  C1  IDS C   4      13.864  30.564  23.6990  0.00  0.00     0.000 C
ATOM     59  C2  IDS C   4      13.626  31.179  22.3560  0.00  0.00     0.000 C
ATOM     60  C3  IDS C   4      13.450  32.698  22.4240  0.00  0.00     0.000 C
ATOM     61  C4  IDS C   4      14.292  33.435  23.4560  0.00  0.00     0.000 C
ATOM     62  C5  IDS C   4      14.536  32.556  24.6880  0.00  0.00     0.000 C
ATOM     63  O5  IDS C   4      14.938  31.243  24.3260  0.00  0.00     0.000 O
ATOM     64   O  IDS C   4      12.084  32.901  22.7360  0.00  0.00     0.000 O
ATOM     66  HD  IDS C   4      12.002  33.245  23.5260  0.00  0.00     0.000 HD
BRANCH 59 66
ATOM     66   O  IDS C   4      14.753  30.929  21.4380  0.00  0.00     0.000 O
ATOM     67   S  IDS C   4      14.405  30.191  20.0710  0.00  0.00     0.000 S
ATOM     68   O  IDS C   4      13.556  31.139  19.3920  0.00  0.00     0.000 OA
ATOM     69   O  IDS C   4      15.688  29.956  19.4380  0.00  0.00     0.000 OA
ATOM     70   O  IDS C   4      13.686  28.973  20.4110  0.00  0.00     0.000 OA
ENDBRANCH 59 66
BRANCH 62 71
ATOM     71   C  IDS C   4      15.634  33.086  25.5900  0.00  0.00     0.000 C
ATOM     72   O  IDS C   4      16.635  32.425  25.7860  0.00  0.00     0.000 OA
ATOM     73   O  IDS C   4      15.437  34.157  26.1980  0.00  0.00     0.000 OA
ENDBRANCH 62 71
BRANCH 58 74
ATOM     74  O4  SGN C   5      12.736  30.295  24.4160  0.00  0.00     0.000 O
BRANCH 74 78
ATOM     75  C1  SGN C   5      10.839  27.628  27.0110  0.00  0.00     0.000 C
ATOM     76  C2  SGN C   5      11.726  28.699  27.6730  0.00  0.00     0.000 C
ATOM     77  C3  SGN C   5      12.081  29.805  26.6700  0.00  0.00     0.000 C
ATOM     78  C4  SGN C   5      12.574  29.228  25.3510  0.00  0.00     0.000 C
ATOM     79  C5  SGN C   5      11.567  28.212  24.8330  0.00  0.00     0.000 C
ATOM     80  O5  SGN C   5      11.413  27.143  25.8040  0.00  0.00     0.000 O
ATOM     81   O  SGN C   5      13.071  30.651  27.2470  0.00  0.00     0.000 O
ATOM     83  HD  SGN C   5      13.065  30.848  28.0900  0.00  0.00     0.000 HD
BRANCH 76 85
ATOM     83   N  SGN C   5      11.826  29.222  29.0420  0.00  0.00     0.000 N
ATOM     85  HD  SGN C   5      11.834  29.123  29.9020  0.00  0.00     0.000 HD
ATOM     85   S  SGN C   5      10.984  28.819  30.3540  0.00  0.00     0.000 S
ATOM     86   O  SGN C   5      11.445  29.550  31.4840  0.00  0.00     0.000 OA
ATOM     87   O  SGN C   5       9.609  28.940  30.0240  0.00  0.00     0.000 OA
ATOM     88   O  SGN C   5      11.462  27.371  30.4190  0.00  0.00     0.000 OA
ENDBRANCH 76 85
BRANCH 79 89
ATOM     89   C  SGN C   5      11.958  27.596  23.5050  0.00  0.00     0.000 C
ATOM     90   O  SGN C   5      12.375  26.223  23.7060  0.00  0.00     0.000 O
ATOM     91   S  SGN C   5      12.090  25.200  22.5030  0.00  0.00     0.000 S
ATOM     92   O  SGN C   5      10.692  25.328  22.1830  0.00  0.00     0.000 OA
ATOM     93   O  SGN C   5      12.943  25.585  21.4080  0.00  0.00     0.000 OA
ATOM     94   O  SGN C   5      12.434  23.923  23.0670  0.00  0.00     0.000 OA
ENDBRANCH 79 89
BRANCH 75 95
ATOM     95  O4  BDP C   6       9.651  28.246  26.7380  0.00  0.00     0.000 O
BRANCH 95 99
ATOM     96  C1  BDP C   6       5.661  26.692  26.4060  0.00  0.00     0.000 C
ATOM     97  C2  BDP C   6       6.559  26.151  27.4830  0.00  0.00     0.000 C
ATOM     98  C3  BDP C   6       7.797  27.013  27.7680  0.00  0.00     0.000 C
ATOM     99  C4  BDP C   6       8.516  27.391  26.4810  0.00  0.00     0.000 C
ATOM    100  C5  BDP C   6       7.467  27.960  25.4970  0.00  0.00     0.000 C
ATOM    101  O5  BDP C   6       6.548  26.871  25.3180  0.00  0.00     0.000 O
BRANCH 100 102
ATOM    102   C  BDP C   6       8.056  28.298  24.1510  0.00  0.00     0.000 C
ATOM    103   O  BDP C   6       8.239  29.467  23.7830  0.00  0.00     0.000 OA
ATOM    104   O  BDP C   6       8.365  27.348  23.4220  0.00  0.00     0.000 OA
ENDBRANCH 100 102
ENDBRANCH 95 99
ENDBRANCH 75 95
ENDBRANCH 74 78
ENDBRANCH 58 74
ENDBRANCH 57 61
ENDBRANCH 37 57
ENDBRANCH 36 40
ENDBRANCH 23 36
ENDBRANCH 22 26
ENDBRANCH 1 22
TORSDOF 20
ENDMDL
MODEL 53
REMARK VINA RESULT:      -2.1     13.702     23.222
ROOT
ATOM      1  C1  NGY C   1      28.555  36.104  25.7940  0.00  0.00     0.000 C
ATOM      2  C2  NGY C   1      29.544  36.777  26.7360  0.00  0.00     0.000 C
ATOM      3  C3  NGY C   1      30.660  35.808  27.1110  0.00  0.00     0.000 C
ATOM      4  C4  NGY C   1      30.029  34.549  27.6730  0.00  0.00     0.000 C
ATOM      5  C5  NGY C   1      29.131  33.932  26.6050  0.00  0.00     0.000 C
ATOM      6  O5  NGY C   1      28.073  34.877  26.2990  0.00  0.00     0.000 O
ATOM      7   O  NGY C   1      31.528  36.434  28.0450  0.00  0.00     0.000 O
ATOM      9  HD  NGY C   1      31.457  36.983  28.7110  0.00  0.00     0.000 HD
ATOM      9   O  NGY C   1      31.023  33.617  28.0730  0.00  0.00     0.000 O
ATOM     11  HD  NGY C   1      30.953  34.166  28.7390  0.00  0.00     0.000 HD
ENDROOT
BRANCH 2 13
ATOM     11   N  NGY C   1      29.247  38.166  26.9950  0.00  0.00     0.000 N
ATOM     13  HD  NGY C   1      29.998  38.514  26.7380  0.00  0.00     0.000 HD
ATOM     13   C  NGY C   1      30.137  39.127  26.7500  0.00  0.00     0.000 C
ATOM     14   O  NGY C   1      31.296  38.856  26.4300  0.00  0.00     0.000 OA
ATOM     15   C  NGY C   1      29.649  40.540  26.8580  0.00  0.00     0.000 C
ENDBRANCH 2 13
BRANCH 5 16
ATOM     16   C  NGY C   1      28.439  32.669  27.0080  0.00  0.00     0.000 C
ATOM     17   O  NGY C   1      26.206  32.390  29.9050  0.00  0.00     0.000 OA
ATOM     18   O  NGY C   1      27.832  32.865  28.2880  0.00  0.00     0.000 O
ATOM     19   S  NGY C   1      26.708  31.838  28.6720  0.00  0.00     0.000 S
ATOM     20   O  NGY C   1      27.346  30.561  28.8630  0.00  0.00     0.000 OA
ATOM     21   O  NGY C   1      25.787  31.865  27.5480  0.00  0.00     0.000 OA
ENDBRANCH 5 16
BRANCH 1 22
ATOM     22  O4  BDP C   2      29.131  35.976  24.5800  0.00  0.00     0.000 O
BRANCH 22 26
ATOM     23  C1  BDP C   2      28.914  35.857  20.4680  0.00  0.00     0.000 C
ATOM     24  C2  BDP C   2      28.421  37.134  21.1090  0.00  0.00     0.000 C
ATOM     25  C3  BDP C   2      28.887  37.194  22.5400  0.00  0.00     0.000 C
ATOM     26  C4  BDP C   2      28.486  35.922  23.2800  0.00  0.00     0.000 C
ATOM     27  C5  BDP C   2      28.878  34.701  22.4580  0.00  0.00     0.000 C
ATOM     28  O5  BDP C   2      28.302  34.713  21.1270  0.00  0.00     0.000 O
ATOM     29   O  BDP C   2      28.999  38.297  20.5180  0.00  0.00     0.000 O
ATOM     31  HD  BDP C   2      29.169  38.959  21.0500  0.00  0.00     0.000 HD
ATOM     31   O  BDP C   2      28.257  38.323  23.1330  0.00  0.00     0.000 O
ATOM     33  HD  BDP C   2      28.427  38.984  23.6650  0.00  0.00     0.000 HD
BRANCH 27 33
ATOM     33   C  BDP C   2      28.420  33.408  23.0910  0.00  0.00     0.000 C
ATOM     34   O  BDP C   2      29.220  32.479  23.3600  0.00  0.00     0.000 OA
ATOM     35   O  BDP C   2      27.230  33.259  23.3110  0.00  0.00     0.000 OA
ENDBRANCH 27 33
BRANCH 23 36
ATOM     36  O4  SGN C   3      28.672  35.744  19.1420  0.00  0.00     0.000 O
BRANCH 36 40
ATOM     37  C1  SGN C   3      30.294  34.585  15.4740  0.00  0.00     0.000 C
ATOM     38  C2  SGN C   3      29.523  33.527  16.2800  0.00  0.00     0.000 C
ATOM     39  C3  SGN C   3      28.648  34.193  17.3320  0.00  0.00     0.000 C
ATOM     40  C4  SGN C   3      29.519  35.066  18.2090  0.00  0.00     0.000 C
ATOM     41  C5  SGN C   3      30.255  36.057  17.3350  0.00  0.00     0.000 C
ATOM     42  O5  SGN C   3      31.067  35.354  16.3820  0.00  0.00     0.000 O
ATOM     43   O  SGN C   3      27.994  33.191  18.1000  0.00  0.00     0.000 O
ATOM     45  HD  SGN C   3      28.094  33.908  18.5750  0.00  0.00     0.000 HD
BRANCH 38 47
ATOM     45   N  SGN C   3      30.334  32.722  15.3490  0.00  0.00     0.000 N
ATOM     47  HD  SGN C   3      30.305  33.294  15.9990  0.00  0.00     0.000 HD
ATOM     47   S  SGN C   3      29.476  31.590  14.6350  0.00  0.00     0.000 S
ATOM     48   O  SGN C   3      29.032  30.613  15.5650  0.00  0.00     0.000 OA
ATOM     49   O  SGN C   3      28.470  32.257  13.8770  0.00  0.00     0.000 OA
ATOM     50   O  SGN C   3      30.474  30.962  13.7710  0.00  0.00     0.000 OA
ENDBRANCH 38 47
BRANCH 41 51
ATOM     51   C  SGN C   3      31.157  36.994  18.0910  0.00  0.00     0.000 C
ATOM     52   O  SGN C   3      33.539  36.119  20.8180  0.00  0.00     0.000 OA
ATOM     53   O  SGN C   3      33.715  37.799  19.1220  0.00  0.00     0.000 OA
ATOM     54   O  SGN C   3      31.998  37.934  20.7940  0.00  0.00     0.000 OA
ATOM     55   O  SGN C   3      31.930  36.245  19.0020  0.00  0.00     0.000 O
ATOM     56   S  SGN C   3      32.884  37.107  20.0300  0.00  0.00     0.000 S
ENDBRANCH 41 51
BRANCH 37 57
ATOM     57  O4  IDS C   4      29.514  35.431  14.7590  0.00  0.00     0.000 O
BRANCH 57 61
ATOM     58  C1  IDS C   4      28.462  37.044  11.4780  0.00  0.00     0.000 C
ATOM     59  C2  IDS C   4      28.771  35.580  11.4920  0.00  0.00     0.000 C
ATOM     60  C3  IDS C   4      29.980  35.240  12.3670  0.00  0.00     0.000 C
ATOM     61  C4  IDS C   4      30.157  36.063  13.6350  0.00  0.00     0.000 C
ATOM     62  C5  IDS C   4      29.632  37.490  13.4340  0.00  0.00     0.000 C
ATOM     63  O5  IDS C   4      28.354  37.499  12.8160  0.00  0.00     0.000 O
ATOM     64   O  IDS C   4      31.109  35.448  11.5400  0.00  0.00     0.000 O
ATOM     66  HD  IDS C   4      31.577  36.118  11.8280  0.00  0.00     0.000 HD
BRANCH 59 66
ATOM     66   O  IDS C   4      27.640  34.792  12.0170  0.00  0.00     0.000 O
ATOM     67   S  IDS C   4      26.831  33.919  10.9600  0.00  0.00     0.000 S
ATOM     68   O  IDS C   4      27.806  32.951  10.5190  0.00  0.00     0.000 OA
ATOM     69   O  IDS C   4      25.717  33.368  11.7060  0.00  0.00     0.000 OA
ATOM     70   O  IDS C   4      26.433  34.810   9.8810  0.00  0.00     0.000 OA
ENDBRANCH 59 66
BRANCH 62 71
ATOM     71   C  IDS C   4      29.462  38.249  14.7360  0.00  0.00     0.000 C
ATOM     72   O  IDS C   4      28.374  38.300  15.2760  0.00  0.00     0.000 OA
ATOM     73   O  IDS C   4      30.432  38.899  15.1760  0.00  0.00     0.000 OA
ENDBRANCH 62 71
BRANCH 58 74
ATOM     74  O4  SGN C   5      29.183  37.775  10.5820  0.00  0.00     0.000 O
BRANCH 74 78
ATOM     75  C1  SGN C   5      27.242  41.388   9.7900  0.00  0.00     0.000 C
ATOM     76  C2  SGN C   5      26.593  40.126   9.1900  0.00  0.00     0.000 C
ATOM     77  C3  SGN C   5      27.184  38.859   9.8230  0.00  0.00     0.000 C
ATOM     78  C4  SGN C   5      28.705  38.901   9.8450  0.00  0.00     0.000 C
ATOM     79  C5  SGN C   5      29.168  40.198  10.4910  0.00  0.00     0.000 C
ATOM     80  O5  SGN C   5      28.661  41.327   9.7300  0.00  0.00     0.000 O
ATOM     81   O  SGN C   5      26.725  37.723   9.0960  0.00  0.00     0.000 O
ATOM     83  HD  SGN C   5      25.923  37.685   8.7720  0.00  0.00     0.000 HD
BRANCH 76 85
ATOM     83   N  SGN C   5      25.306  39.898   8.5200  0.00  0.00     0.000 N
ATOM     85  HD  SGN C   5      24.614  40.169   8.0760  0.00  0.00     0.000 HD
ATOM     85   S  SGN C   5      23.973  40.801   8.5320  0.00  0.00     0.000 S
ATOM     86   O  SGN C   5      22.973  40.221   7.7030  0.00  0.00     0.000 OA
ATOM     87   O  SGN C   5      23.633  41.029   9.8900  0.00  0.00     0.000 OA
ATOM     88   O  SGN C   5      24.592  42.020   7.8530  0.00  0.00     0.000 OA
ENDBRANCH 76 85
BRANCH 79 89
ATOM     89   C  SGN C   5      30.675  40.324  10.5820  0.00  0.00     0.000 C
ATOM     90   O  SGN C   5      31.023  41.507  11.3420  0.00  0.00     0.000 O
ATOM     91   S  SGN C   5      32.381  41.443  12.1950  0.00  0.00     0.000 S
ATOM     92   O  SGN C   5      32.298  40.253  13.0020  0.00  0.00     0.000 OA
ATOM     93   O  SGN C   5      33.470  41.394  11.2540  0.00  0.00     0.000 OA
ATOM     94   O  SGN C   5      32.347  42.658  12.9620  0.00  0.00     0.000 OA
ENDBRANCH 79 89
BRANCH 75 95
ATOM     95  O4  BDP C   6      26.839  41.429  11.0950  0.00  0.00     0.000 O
BRANCH 95 99
ATOM     96  C1  BDP C   6      25.870  45.016  13.2480  0.00  0.00     0.000 C
ATOM     97  C2  BDP C   6      26.159  45.114  11.7760  0.00  0.00     0.000 C
ATOM     98  C3  BDP C   6      26.114  43.771  11.0310  0.00  0.00     0.000 C
ATOM     99  C4  BDP C   6      26.921  42.707  11.7610  0.00  0.00     0.000 C
ATOM    100  C5  BDP C   6      26.483  42.710  13.2450  0.00  0.00     0.000 C
ATOM    101  O5  BDP C   6      26.796  44.040  13.6860  0.00  0.00     0.000 O
BRANCH 100 102
ATOM    102   C  BDP C   6      27.275  41.742  14.0870  0.00  0.00     0.000 C
ATOM    103   O  BDP C   6      28.502  41.615  13.9710  0.00  0.00     0.000 OA
ATOM    104   O  BDP C   6      26.644  41.079  14.9190  0.00  0.00     0.000 OA
ENDBRANCH 100 102
ENDBRANCH 95 99
ENDBRANCH 75 95
ENDBRANCH 74 78
ENDBRANCH 58 74
ENDBRANCH 57 61
ENDBRANCH 37 57
ENDBRANCH 36 40
ENDBRANCH 23 36
ENDBRANCH 22 26
ENDBRANCH 1 22
TORSDOF 20
ENDMDL
MODEL 54
REMARK VINA RESULT:      -1.8     24.306     31.992
ROOT
ATOM      1  C1  NGY C   1      39.902  51.144  17.7090  0.00  0.00     0.000 C
ATOM      2  C2  NGY C   1      40.898  51.672  16.6850  0.00  0.00     0.000 C
ATOM      3  C3  NGY C   1      41.660  50.516  16.0440  0.00  0.00     0.000 C
ATOM      4  C4  NGY C   1      42.290  49.691  17.1500  0.00  0.00     0.000 C
ATOM      5  C5  NGY C   1      41.182  49.157  18.0540  0.00  0.00     0.000 C
ATOM      6  O5  NGY C   1      40.502  50.288  18.6570  0.00  0.00     0.000 O
ATOM      7   O  NGY C   1      42.631  51.037  15.1480  0.00  0.00     0.000 O
ATOM      9  HD  NGY C   1      43.161  51.721  15.1100  0.00  0.00     0.000 HD
ATOM      9   O  NGY C   1      43.045  48.614  16.6140  0.00  0.00     0.000 O
ATOM     11  HD  NGY C   1      43.575  49.298  16.5760  0.00  0.00     0.000 HD
ENDROOT
BRANCH 2 13
ATOM     11   N  NGY C   1      40.090  52.590  15.9170  0.00  0.00     0.000 N
ATOM     13  HD  NGY C   1      40.713  53.137  15.6630  0.00  0.00     0.000 HD
ATOM     13   C  NGY C   1      40.624  53.647  15.3070  0.00  0.00     0.000 C
ATOM     14   O  NGY C   1      41.801  53.962  15.4910  0.00  0.00     0.000 OA
ATOM     15   C  NGY C   1      39.732  54.407  14.3730  0.00  0.00     0.000 C
ENDBRANCH 2 13
BRANCH 5 16
ATOM     16   C  NGY C   1      41.647  48.309  19.1950  0.00  0.00     0.000 C
ATOM     17   O  NGY C   1      43.397  49.619  22.1420  0.00  0.00     0.000 OA
ATOM     18   O  NGY C   1      42.471  49.104  20.0530  0.00  0.00     0.000 O
ATOM     19   S  NGY C   1      42.681  48.543  21.5050  0.00  0.00     0.000 S
ATOM     20   O  NGY C   1      43.477  47.349  21.3880  0.00  0.00     0.000 OA
ATOM     21   O  NGY C   1      41.336  48.299  22.0010  0.00  0.00     0.000 OA
ENDBRANCH 5 16
BRANCH 1 22
ATOM     22  O4  BDP C   2      38.877  50.558  17.0560  0.00  0.00     0.000 O
BRANCH 22 26
ATOM     23  C1  BDP C   2      34.898  49.535  16.7540  0.00  0.00     0.000 C
ATOM     24  C2  BDP C   2      35.180  51.011  16.9070  0.00  0.00     0.000 C
ATOM     25  C3  BDP C   2      36.638  51.278  16.6390  0.00  0.00     0.000 C
ATOM     26  C4  BDP C   2      37.509  50.377  17.5080  0.00  0.00     0.000 C
ATOM     27  C5  BDP C   2      37.022  48.937  17.4090  0.00  0.00     0.000 C
ATOM     28  O5  BDP C   2      35.625  48.791  17.7720  0.00  0.00     0.000 O
ATOM     29   O  BDP C   2      34.507  51.798  15.9240  0.00  0.00     0.000 O
ATOM     31  HD  BDP C   2      34.930  52.494  15.6290  0.00  0.00     0.000 HD
ATOM     31   O  BDP C   2      36.874  52.643  16.9600  0.00  0.00     0.000 O
ATOM     33  HD  BDP C   2      37.297  53.339  16.6650  0.00  0.00     0.000 HD
BRANCH 27 33
ATOM     33   C  BDP C   2      37.783  48.007  18.3240  0.00  0.00     0.000 C
ATOM     34   O  BDP C   2      37.941  48.254  19.5430  0.00  0.00     0.000 OA
ATOM     35   O  BDP C   2      38.284  47.003  17.8450  0.00  0.00     0.000 OA
ENDBRANCH 27 33
BRANCH 23 36
ATOM     36  O4  SGN C   3      33.595  49.182  16.8410  0.00  0.00     0.000 O
BRANCH 36 40
ATOM     37  C1  SGN C   3      30.613  46.635  15.4100  0.00  0.00     0.000 C
ATOM     38  C2  SGN C   3      31.613  46.063  16.4270  0.00  0.00     0.000 C
ATOM     39  C3  SGN C   3      32.329  47.187  17.1600  0.00  0.00     0.000 C
ATOM     40  C4  SGN C   3      32.993  48.089  16.1420  0.00  0.00     0.000 C
ATOM     41  C5  SGN C   3      31.944  48.586  15.1720  0.00  0.00     0.000 C
ATOM     42  O5  SGN C   3      31.327  47.470  14.5120  0.00  0.00     0.000 O
ATOM     43   O  SGN C   3      33.288  46.630  18.0500  0.00  0.00     0.000 O
ATOM     45  HD  SGN C   3      33.539  47.422  17.8040  0.00  0.00     0.000 HD
BRANCH 38 47
ATOM     45   N  SGN C   3      30.835  45.252  17.3810  0.00  0.00     0.000 N
ATOM     47  HD  SGN C   3      31.102  46.034  17.1220  0.00  0.00     0.000 HD
ATOM     47   S  SGN C   3      30.615  43.766  16.8610  0.00  0.00     0.000 S
ATOM     48   O  SGN C   3      29.791  43.738  15.7050  0.00  0.00     0.000 OA
ATOM     49   O  SGN C   3      31.910  43.180  16.7400  0.00  0.00     0.000 OA
ATOM     50   O  SGN C   3      29.858  43.175  17.9630  0.00  0.00     0.000 OA
ENDBRANCH 38 47
BRANCH 41 51
ATOM     51   C  SGN C   3      32.477  49.502  14.1050  0.00  0.00     0.000 C
ATOM     52   O  SGN C   3      31.368  52.979  13.3570  0.00  0.00     0.000 OA
ATOM     53   O  SGN C   3      33.549  52.006  13.1900  0.00  0.00     0.000 OA
ATOM     54   O  SGN C   3      31.762  51.235  11.7840  0.00  0.00     0.000 OA
ATOM     55   O  SGN C   3      31.815  50.744  14.1980  0.00  0.00     0.000 O
ATOM     56   S  SGN C   3      32.156  51.842  13.0210  0.00  0.00     0.000 S
ENDBRANCH 41 51
BRANCH 37 57
ATOM     57  O4  IDS C   4      29.606  47.362  15.9540  0.00  0.00     0.000 O
BRANCH 57 61
ATOM     58  C1  IDS C   4      25.827  47.533  16.3540  0.00  0.00     0.000 C
ATOM     59  C2  IDS C   4      26.459  46.208  16.0660  0.00  0.00     0.000 C
ATOM     60  C3  IDS C   4      27.597  46.305  15.0470  0.00  0.00     0.000 C
ATOM     61  C4  IDS C   4      28.459  47.558  15.1050  0.00  0.00     0.000 C
ATOM     62  C5  IDS C   4      27.634  48.764  15.5690  0.00  0.00     0.000 C
ATOM     63  O5  IDS C   4      26.844  48.455  16.7080  0.00  0.00     0.000 O
ATOM     64   O  IDS C   4      26.967  46.255  13.7800  0.00  0.00     0.000 O
ATOM     66  HD  IDS C   4      27.053  47.012  13.3690  0.00  0.00     0.000 HD
BRANCH 59 66
ATOM     66   O  IDS C   4      27.038  45.608  17.2830  0.00  0.00     0.000 O
ATOM     67   S  IDS C   4      26.344  44.280  17.8200  0.00  0.00     0.000 S
ATOM     68   O  IDS C   4      26.594  43.329  16.7630  0.00  0.00     0.000 OA
ATOM     69   O  IDS C   4      27.012  43.990  19.0730  0.00  0.00     0.000 OA
ATOM     70   O  IDS C   4      24.925  44.564  17.9620  0.00  0.00     0.000 OA
ENDBRANCH 59 66
BRANCH 62 71
ATOM     71   C  IDS C   4      28.489  49.949  15.9740  0.00  0.00     0.000 C
ATOM     72   O  IDS C   4      28.932  50.024  17.1040  0.00  0.00     0.000 OA
ATOM     73   O  IDS C   4      28.635  50.883  15.1590  0.00  0.00     0.000 OA
ENDBRANCH 62 71
BRANCH 58 74
ATOM     74  O4  SGN C   5      24.861  47.913  15.4700  0.00  0.00     0.000 O
BRANCH 74 78
ATOM     75  C1  SGN C   5      21.239  49.920  14.9290  0.00  0.00     0.000 C
ATOM     76  C2  SGN C   5      22.495  50.807  15.0210  0.00  0.00     0.000 C
ATOM     77  C3  SGN C   5      23.767  49.962  14.8740  0.00  0.00     0.000 C
ATOM     78  C4  SGN C   5      23.730  48.731  15.7700  0.00  0.00     0.000 C
ATOM     79  C5  SGN C   5      22.437  47.966  15.5270  0.00  0.00     0.000 C
ATOM     80  O5  SGN C   5      21.303  48.822  15.8290  0.00  0.00     0.000 O
ATOM     81   O  SGN C   5      24.897  50.771  15.1820  0.00  0.00     0.000 O
ATOM     83  HD  SGN C   5      24.932  51.607  14.9600  0.00  0.00     0.000 HD
BRANCH 76 85
ATOM     83   N  SGN C   5      22.173  51.725  13.9220  0.00  0.00     0.000 N
ATOM     85  HD  SGN C   5      22.226  52.492  13.5230  0.00  0.00     0.000 HD
ATOM     85   S  SGN C   5      21.809  53.293  13.9720  0.00  0.00     0.000 S
ATOM     86   O  SGN C   5      21.612  53.800  12.6590  0.00  0.00     0.000 OA
ATOM     87   O  SGN C   5      20.738  53.445  14.8910  0.00  0.00     0.000 OA
ATOM     88   O  SGN C   5      23.152  53.757  14.5310  0.00  0.00     0.000 OA
ENDBRANCH 76 85
BRANCH 79 89
ATOM     89   C  SGN C   5      22.316  46.706  16.3590  0.00  0.00     0.000 C
ATOM     90   O  SGN C   5      21.465  46.954  17.5050  0.00  0.00     0.000 O
ATOM     91   S  SGN C   5      20.601  45.714  18.0440  0.00  0.00     0.000 S
ATOM     92   O  SGN C   5      19.887  45.192  16.9080  0.00  0.00     0.000 OA
ATOM     93   O  SGN C   5      21.529  44.760  18.5970  0.00  0.00     0.000 OA
ATOM     94   O  SGN C   5      19.745  46.312  19.0320  0.00  0.00     0.000 OA
ENDBRANCH 79 89
BRANCH 75 95
ATOM     95  O4  BDP C   6      21.203  49.459  13.6430  0.00  0.00     0.000 O
BRANCH 95 99
ATOM     96  C1  BDP C   6      17.641  49.039  11.2810  0.00  0.00     0.000 C
ATOM     97  C2  BDP C   6      17.541  49.703  12.6250  0.00  0.00     0.000 C
ATOM     98  C3  BDP C   6      18.889  50.148  13.2140  0.00  0.00     0.000 C
ATOM     99  C4  BDP C   6      19.919  49.031  13.1400  0.00  0.00     0.000 C
ATOM    100  C5  BDP C   6      19.924  48.480  11.6940  0.00  0.00     0.000 C
ATOM    101  O5  BDP C   6      18.581  48.005  11.5110  0.00  0.00     0.000 O
BRANCH 100 102
ATOM    102   C  BDP C   6      20.858  47.309  11.5210  0.00  0.00     0.000 C
ATOM    103   O  BDP C   6      22.037  47.341  11.9040  0.00  0.00     0.000 OA
ATOM    104   O  BDP C   6      20.392  46.297  10.9860  0.00  0.00     0.000 OA
ENDBRANCH 100 102
ENDBRANCH 95 99
ENDBRANCH 75 95
ENDBRANCH 74 78
ENDBRANCH 58 74
ENDBRANCH 57 61
ENDBRANCH 37 57
ENDBRANCH 36 40
ENDBRANCH 23 36
ENDBRANCH 22 26
ENDBRANCH 1 22
TORSDOF 20
ENDMDL
MODEL 55
REMARK VINA RESULT:      -1.7     30.452     37.786
ROOT
ATOM      1  C1  NGY C   1      44.027   4.412  40.1520  0.00  0.00     0.000 C
ATOM      2  C2  NGY C   1      45.352   4.221  39.4270  0.00  0.00     0.000 C
ATOM      3  C3  NGY C   1      45.685   5.459  38.6000  0.00  0.00     0.000 C
ATOM      4  C4  NGY C   1      44.513   5.747  37.6810  0.00  0.00     0.000 C
ATOM      5  C5  NGY C   1      43.273   5.999  38.5330  0.00  0.00     0.000 C
ATOM      6  O5  NGY C   1      42.981   4.791  39.2810  0.00  0.00     0.000 O
ATOM      7   O  NGY C   1      46.886   5.228  37.8780  0.00  0.00     0.000 O
ATOM      9  HD  NGY C   1      47.271   4.565  37.4760  0.00  0.00     0.000 HD
ATOM      9   O  NGY C   1      44.778   6.873  36.8580  0.00  0.00     0.000 O
ATOM     11  HD  NGY C   1      45.162   6.209  36.4560  0.00  0.00     0.000 HD
ENDROOT
BRANCH 2 13
ATOM     11   N  NGY C   1      46.571   3.479  39.2120  0.00  0.00     0.000 N
ATOM     13  HD  NGY C   1      46.751   3.274  40.0340  0.00  0.00     0.000 HD
ATOM     13   C  NGY C   1      47.250   2.943  40.2250  0.00  0.00     0.000 C
ATOM     14   O  NGY C   1      46.942   3.179  41.3940  0.00  0.00     0.000 OA
ATOM     15   C  NGY C   1      48.378   2.024  39.8670  0.00  0.00     0.000 C
ENDBRANCH 2 13
BRANCH 5 16
ATOM     16   C  NGY C   1      42.027   6.309  37.7660  0.00  0.00     0.000 C
ATOM     17   O  NGY C   1      40.723   9.700  37.2580  0.00  0.00     0.000 OA
ATOM     18   O  NGY C   1      41.703   7.690  37.9530  0.00  0.00     0.000 O
ATOM     19   S  NGY C   1      40.716   8.305  36.8970  0.00  0.00     0.000 S
ATOM     20   O  NGY C   1      39.432   7.691  37.1070  0.00  0.00     0.000 OA
ATOM     21   O  NGY C   1      41.310   7.984  35.6090  0.00  0.00     0.000 OA
ENDBRANCH 5 16
BRANCH 1 22
ATOM     22  O4  BDP C   2      44.206   5.291  41.1610  0.00  0.00     0.000 O
BRANCH 22 26
ATOM     23  C1  BDP C   2      43.350   6.499  45.0040  0.00  0.00     0.000 C
ATOM     24  C2  BDP C   2      43.440   5.006  44.7970  0.00  0.00     0.000 C
ATOM     25  C3  BDP C   2      44.105   4.717  43.4770  0.00  0.00     0.000 C
ATOM     26  C4  BDP C   2      43.397   5.468  42.3540  0.00  0.00     0.000 C
ATOM     27  C5  BDP C   2      43.206   6.927  42.7470  0.00  0.00     0.000 C
ATOM     28  O5  BDP C   2      42.480   7.081  43.9930  0.00  0.00     0.000 O
ATOM     29   O  BDP C   2      44.296   4.375  45.7500  0.00  0.00     0.000 O
ATOM     31  HD  BDP C   2      44.765   3.705  45.4650  0.00  0.00     0.000 HD
ATOM     31   O  BDP C   2      44.009   3.314  43.2640  0.00  0.00     0.000 O
ATOM     33  HD  BDP C   2      44.479   2.645  42.9790  0.00  0.00     0.000 HD
BRANCH 27 33
ATOM     33   C  BDP C   2      42.423   7.705  41.7170  0.00  0.00     0.000 C
ATOM     34   O  BDP C   2      42.907   8.698  41.1240  0.00  0.00     0.000 OA
ATOM     35   O  BDP C   2      41.273   7.369  41.4870  0.00  0.00     0.000 OA
ENDBRANCH 27 33
BRANCH 23 36
ATOM     36  O4  SGN C   3      42.889   6.890  46.2150  0.00  0.00     0.000 O
BRANCH 36 40
ATOM     37  C1  SGN C   3      43.376   9.583  49.3670  0.00  0.00     0.000 C
ATOM     38  C2  SGN C   3      42.558  10.047  48.1510  0.00  0.00     0.000 C
ATOM     39  C3  SGN C   3      42.111   8.852  47.3220  0.00  0.00     0.000 C
ATOM     40  C4  SGN C   3      43.332   8.049  46.9250  0.00  0.00     0.000 C
ATOM     41  C5  SGN C   3      44.085   7.656  48.1770  0.00  0.00     0.000 C
ATOM     42  O5  SGN C   3      44.485   8.835  48.8930  0.00  0.00     0.000 O
ATOM     43   O  SGN C   3      41.410   9.313  46.1750  0.00  0.00     0.000 O
ATOM     45  HD  SGN C   3      41.778   8.548  46.0070  0.00  0.00     0.000 HD
BRANCH 38 47
ATOM     45   N  SGN C   3      42.351  11.459  47.7800  0.00  0.00     0.000 N
ATOM     47  HD  SGN C   3      42.521  10.647  47.5310  0.00  0.00     0.000 HD
ATOM     47   S  SGN C   3      41.700  12.298  48.9630  0.00  0.00     0.000 S
ATOM     48   O  SGN C   3      40.376  11.864  49.2390  0.00  0.00     0.000 OA
ATOM     49   O  SGN C   3      42.626  12.260  50.0480  0.00  0.00     0.000 OA
ATOM     50   O  SGN C   3      41.618  13.632  48.3710  0.00  0.00     0.000 OA
ENDBRANCH 38 47
BRANCH 41 51
ATOM     51   C  SGN C   3      45.325   6.844  47.9190  0.00  0.00     0.000 C
ATOM     52   O  SGN C   3      48.020   7.567  45.4500  0.00  0.00     0.000 OA
ATOM     53   O  SGN C   3      48.167   6.550  47.6120  0.00  0.00     0.000 OA
ATOM     54   O  SGN C   3      46.962   5.469  45.8390  0.00  0.00     0.000 OA
ATOM     55   O  SGN C   3      46.102   7.498  46.9390  0.00  0.00     0.000 O
ATOM     56   S  SGN C   3      47.437   6.694  46.4110  0.00  0.00     0.000 S
ENDBRANCH 41 51
BRANCH 37 57
ATOM     57  O4  IDS C   4      42.692   8.814  50.2490  0.00  0.00     0.000 O
BRANCH 57 61
ATOM     58  C1  IDS C   4      41.435   8.487  53.8240  0.00  0.00     0.000 C
ATOM     59  C2  IDS C   4      41.642   9.856  53.2580  0.00  0.00     0.000 C
ATOM     60  C3  IDS C   4      42.905   9.956  52.3990  0.00  0.00     0.000 C
ATOM     61  C4  IDS C   4      43.263   8.732  51.5690  0.00  0.00     0.000 C
ATOM     62  C5  IDS C   4      42.821   7.446  52.2780  0.00  0.00     0.000 C
ATOM     63  O5  IDS C   4      41.492   7.544  52.7670  0.00  0.00     0.000 O
ATOM     64   O  IDS C   4      43.959  10.198  53.3130  0.00  0.00     0.000 O
ATOM     66  HD  IDS C   4      44.498   9.521  53.3400  0.00  0.00     0.000 HD
BRANCH 59 66
ATOM     66   O  IDS C   4      40.517  10.262  52.3960  0.00  0.00     0.000 O
ATOM     67   S  IDS C   4      39.609  11.456  52.9270  0.00  0.00     0.000 S
ATOM     68   O  IDS C   4      40.515  12.580  52.9350  0.00  0.00     0.000 OA
ATOM     69   O  IDS C   4      38.523  11.554  51.9720  0.00  0.00     0.000 OA
ATOM     70   O  IDS C   4      39.179  11.104  54.2720  0.00  0.00     0.000 OA
ENDBRANCH 59 66
BRANCH 62 71
ATOM     71   C  IDS C   4      42.834   6.231  51.3690  0.00  0.00     0.000 C
ATOM     72   O  IDS C   4      43.889   5.787  50.9590  0.00  0.00     0.000 OA
ATOM     73   O  IDS C   4      41.742   5.773  50.9760  0.00  0.00     0.000 OA
ENDBRANCH 62 71
BRANCH 58 74
ATOM     74  O4  SGN C   5      42.113   8.234  54.9800  0.00  0.00     0.000 O
BRANCH 74 78
ATOM     75  C1  SGN C   5      42.001   6.478  58.7680  0.00  0.00     0.000 C
ATOM     76  C2  SGN C   5      42.194   5.514  57.5820  0.00  0.00     0.000 C
ATOM     77  C3  SGN C   5      42.559   6.288  56.3080  0.00  0.00     0.000 C
ATOM     78  C4  SGN C   5      41.627   7.471  56.0840  0.00  0.00     0.000 C
ATOM     79  C5  SGN C   5      41.578   8.324  57.3430  0.00  0.00     0.000 C
ATOM     80  O5  SGN C   5      41.090   7.523  58.4520  0.00  0.00     0.000 O
ATOM     81   O  SGN C   5      42.512   5.398  55.1980  0.00  0.00     0.000 O
ATOM     83  HD  SGN C   5      42.769   4.573  55.2650  0.00  0.00     0.000 HD
BRANCH 76 85
ATOM     83   N  SGN C   5      42.542   4.090  57.5050  0.00  0.00     0.000 N
ATOM     85  HD  SGN C   5      42.579   3.291  57.8360  0.00  0.00     0.000 HD
ATOM     85   S  SGN C   5      43.180   3.131  58.6300  0.00  0.00     0.000 S
ATOM     86   O  SGN C   5      43.309   1.803  58.1370  0.00  0.00     0.000 OA
ATOM     87   O  SGN C   5      44.361   3.763  59.0990  0.00  0.00     0.000 OA
ATOM     88   O  SGN C   5      42.015   3.229  59.6120  0.00  0.00     0.000 OA
ENDBRANCH 76 85
BRANCH 79 89
ATOM     89   C  SGN C   5      40.691   9.545  57.2110  0.00  0.00     0.000 C
ATOM     90   O  SGN C   5      40.118   9.876  58.5000  0.00  0.00     0.000 O
ATOM     91   S  SGN C   5      39.829  11.429  58.7830  0.00  0.00     0.000 S
ATOM     92   O  SGN C   5      41.058  12.128  58.5100  0.00  0.00     0.000 OA
ATOM     93   O  SGN C   5      38.762  11.828  57.9010  0.00  0.00     0.000 OA
ATOM     94   O  SGN C   5      39.455  11.448  60.1710  0.00  0.00     0.000 OA
ENDBRANCH 79 89
BRANCH 75 95
ATOM     95  O4  BDP C   6      43.235   7.007  59.0220  0.00  0.00     0.000 O
BRANCH 95 99
ATOM     96  C1  BDP C   6      44.988   7.991  62.8180  0.00  0.00     0.000 C
ATOM     97  C2  BDP C   6      43.877   6.980  62.7770  0.00  0.00     0.000 C
ATOM     98  C3  BDP C   6      43.584   6.417  61.3780  0.00  0.00     0.000 C
ATOM     99  C4  BDP C   6      43.459   7.532  60.3490  0.00  0.00     0.000 C
ATOM    100  C5  BDP C   6      44.688   8.459  60.4970  0.00  0.00     0.000 C
ATOM    101  O5  BDP C   6      44.586   8.939  61.8470  0.00  0.00     0.000 O
BRANCH 100 102
ATOM    102   C  BDP C   6      44.632   9.650  59.5740  0.00  0.00     0.000 C
ATOM    103   O  BDP C   6      43.603  10.326  59.4270  0.00  0.00     0.000 OA
ATOM    104   O  BDP C   6      45.672   9.938  58.9700  0.00  0.00     0.000 OA
ENDBRANCH 100 102
ENDBRANCH 95 99
ENDBRANCH 75 95
ENDBRANCH 74 78
ENDBRANCH 58 74
ENDBRANCH 57 61
ENDBRANCH 37 57
ENDBRANCH 36 40
ENDBRANCH 23 36
ENDBRANCH 22 26
ENDBRANCH 1 22
TORSDOF 20
ENDMDL
MODEL 56
REMARK VINA RESULT:      -1.7     34.230     42.680
ROOT
ATOM      1  C1  NGY C   1      36.423  13.089  69.2320  0.00  0.00     0.000 C
ATOM      2  C2  NGY C   1      36.879  14.540  69.2990  0.00  0.00     0.000 C
ATOM      3  C3  NGY C   1      38.267  14.686  68.6830  0.00  0.00     0.000 C
ATOM      4  C4  NGY C   1      39.200  13.712  69.3760  0.00  0.00     0.000 C
ATOM      5  C5  NGY C   1      38.675  12.295  69.1640  0.00  0.00     0.000 C
ATOM      6  O5  NGY C   1      37.367  12.197  69.7850  0.00  0.00     0.000 O
ATOM      7   O  NGY C   1      38.701  16.031  68.8220  0.00  0.00     0.000 O
ATOM      9  HD  NGY C   1      38.634  16.665  69.4090  0.00  0.00     0.000 HD
ATOM      9   O  NGY C   1      40.522  13.824  68.8680  0.00  0.00     0.000 O
ATOM     11  HD  NGY C   1      40.455  14.457  69.4550  0.00  0.00     0.000 HD
ENDROOT
BRANCH 2 13
ATOM     11   N  NGY C   1      35.726  15.248  68.7950  0.00  0.00     0.000 N
ATOM     13  HD  NGY C   1      35.837  15.999  69.2120  0.00  0.00     0.000 HD
ATOM     13   C  NGY C   1      35.456  16.497  69.1680  0.00  0.00     0.000 C
ATOM     14   O  NGY C   1      36.097  17.047  70.0660  0.00  0.00     0.000 OA
ATOM     15   C  NGY C   1      34.360  17.199  68.4260  0.00  0.00     0.000 C
ENDBRANCH 2 13
BRANCH 5 16
ATOM     16   C  NGY C   1      39.499  11.212  69.7850  0.00  0.00     0.000 C
ATOM     17   O  NGY C   1      39.756  10.650  73.4010  0.00  0.00     0.000 OA
ATOM     18   O  NGY C   1      39.541  11.420  71.1990  0.00  0.00     0.000 O
ATOM     19   S  NGY C   1      39.964  10.173  72.0570  0.00  0.00     0.000 S
ATOM     20   O  NGY C   1      41.352   9.915  71.7750  0.00  0.00     0.000 OA
ATOM     21   O  NGY C   1      39.075   9.109  71.6200  0.00  0.00     0.000 OA
ENDBRANCH 5 16
BRANCH 1 22
ATOM     22  O4  BDP C   2      36.113  12.789  67.9530  0.00  0.00     0.000 O
BRANCH 22 26
ATOM     23  C1  BDP C   2      33.850  10.773  65.1640  0.00  0.00     0.000 C
ATOM     24  C2  BDP C   2      33.070  11.607  66.1530  0.00  0.00     0.000 C
ATOM     25  C3  BDP C   2      34.002  12.557  66.8590  0.00  0.00     0.000 C
ATOM     26  C4  BDP C   2      35.175  11.794  67.4650  0.00  0.00     0.000 C
ATOM     27  C5  BDP C   2      35.774  10.855  66.4250  0.00  0.00     0.000 C
ATOM     28  O5  BDP C   2      34.799   9.931  65.8770  0.00  0.00     0.000 O
ATOM     29   O  BDP C   2      32.130  12.471  65.5140  0.00  0.00     0.000 O
ATOM     31  HD  BDP C   2      32.009  13.248  65.8770  0.00  0.00     0.000 HD
ATOM     31   O  BDP C   2      33.249  13.190  67.8850  0.00  0.00     0.000 O
ATOM     33  HD  BDP C   2      33.128  13.967  68.2480  0.00  0.00     0.000 HD
BRANCH 27 33
ATOM     33   C  BDP C   2      36.880   9.997  66.9910  0.00  0.00     0.000 C
ATOM     34   O  BDP C   2      37.955   9.805  66.3740  0.00  0.00     0.000 OA
ATOM     35   O  BDP C   2      36.698   9.449  68.0660  0.00  0.00     0.000 OA
ENDBRANCH 27 33
BRANCH 23 36
ATOM     36  O4  SGN C   3      33.105   9.968  64.3710  0.00  0.00     0.000 O
BRANCH 36 40
ATOM     37  C1  SGN C   3      32.398   8.664  60.4680  0.00  0.00     0.000 C
ATOM     38  C2  SGN C   3      33.679   8.175  61.1640  0.00  0.00     0.000 C
ATOM     39  C3  SGN C   3      33.573   8.365  62.6700  0.00  0.00     0.000 C
ATOM     40  C4  SGN C   3      33.279   9.822  62.9590  0.00  0.00     0.000 C
ATOM     41  C5  SGN C   3      32.021  10.221  62.2190  0.00  0.00     0.000 C
ATOM     42  O5  SGN C   3      32.206  10.029  60.8080  0.00  0.00     0.000 O
ATOM     43   O  SGN C   3      34.792   7.961  63.2800  0.00  0.00     0.000 O
ATOM     45  HD  SGN C   3      34.403   8.562  63.7680  0.00  0.00     0.000 HD
BRANCH 38 47
ATOM     45   N  SGN C   3      33.866   7.915  59.7250  0.00  0.00     0.000 N
ATOM     47  HD  SGN C   3      33.688   8.481  60.3560  0.00  0.00     0.000 HD
ATOM     47   S  SGN C   3      34.563   6.512  59.4580  0.00  0.00     0.000 S
ATOM     48   O  SGN C   3      35.898   6.496  59.9400  0.00  0.00     0.000 OA
ATOM     49   O  SGN C   3      33.683   5.514  59.9740  0.00  0.00     0.000 OA
ATOM     50   O  SGN C   3      34.615   6.480  57.9970  0.00  0.00     0.000 OA
ENDBRANCH 38 47
BRANCH 41 51
ATOM     51   C  SGN C   3      31.614  11.655  62.4280  0.00  0.00     0.000 C
ATOM     52   O  SGN C   3      28.170  13.066  62.2710  0.00  0.00     0.000 OA
ATOM     53   O  SGN C   3      30.016  13.703  63.6560  0.00  0.00     0.000 OA
ATOM     54   O  SGN C   3      30.133  13.972  61.2730  0.00  0.00     0.000 OA
ATOM     55   O  SGN C   3      30.210  11.748  62.3300  0.00  0.00     0.000 O
ATOM     56   S  SGN C   3      29.574  13.265  62.3870  0.00  0.00     0.000 S
ENDBRANCH 41 51
BRANCH 37 57
ATOM     57  O4  IDS C   4      31.276   7.982  60.8040  0.00  0.00     0.000 O
BRANCH 57 61
ATOM     58  C1  IDS C   4      28.474   6.143  59.0040  0.00  0.00     0.000 C
ATOM     59  C2  IDS C   4      29.702   6.512  58.2330  0.00  0.00     0.000 C
ATOM     60  C3  IDS C   4      30.232   7.902  58.5950  0.00  0.00     0.000 C
ATOM     61  C4  IDS C   4      30.097   8.325  60.0510  0.00  0.00     0.000 C
ATOM     62  C5  IDS C   4      28.844   7.706  60.6830  0.00  0.00     0.000 C
ATOM     63  O5  IDS C   4      28.734   6.322  60.3860  0.00  0.00     0.000 O
ATOM     64   O  IDS C   4      29.488   8.804  57.7980  0.00  0.00     0.000 O
ATOM     66  HD  IDS C   4      28.975   9.294  58.2940  0.00  0.00     0.000 HD
BRANCH 59 66
ATOM     66   O  IDS C   4      30.805   5.565  58.4850  0.00  0.00     0.000 O
ATOM     67   S  IDS C   4      31.146   4.544  57.3130  0.00  0.00     0.000 S
ATOM     68   O  IDS C   4      31.610   5.405  56.2510  0.00  0.00     0.000 OA
ATOM     69   O  IDS C   4      32.154   3.662  57.8680  0.00  0.00     0.000 OA
ATOM     70   O  IDS C   4      29.907   3.871  56.9550  0.00  0.00     0.000 OA
ENDBRANCH 59 66
BRANCH 62 71
ATOM     71   C  IDS C   4      28.832   7.802  62.1960  0.00  0.00     0.000 C
ATOM     72   O  IDS C   4      28.834   6.791  62.8720  0.00  0.00     0.000 OA
ATOM     73   O  IDS C   4      28.715   8.928  62.7190  0.00  0.00     0.000 OA
ENDBRANCH 62 71
BRANCH 58 74
ATOM     74  O4  SGN C   5      27.305   6.610  58.4800  0.00  0.00     0.000 O
BRANCH 74 78
ATOM     75  C1  SGN C   5      23.250   5.623  58.6450  0.00  0.00     0.000 C
ATOM     76  C2  SGN C   5      24.179   4.821  59.5760  0.00  0.00     0.000 C
ATOM     77  C3  SGN C   5      25.555   5.493  59.6790  0.00  0.00     0.000 C
ATOM     78  C4  SGN C   5      26.107   5.853  58.3070  0.00  0.00     0.000 C
ATOM     79  C5  SGN C   5      25.070   6.661  57.5400  0.00  0.00     0.000 C
ATOM     80  O5  SGN C   5      23.859   5.875  57.3860  0.00  0.00     0.000 O
ATOM     81   O  SGN C   5      26.446   4.617  60.3620  0.00  0.00     0.000 O
ATOM     83  HD  SGN C   5      26.181   4.122  61.0210  0.00  0.00     0.000 HD
BRANCH 76 85
ATOM     83   N  SGN C   5      22.964   4.134  60.0320  0.00  0.00     0.000 N
ATOM     85  HD  SGN C   5      22.324   4.004  60.6000  0.00  0.00     0.000 HD
ATOM     85   S  SGN C   5      22.561   3.641  61.5110  0.00  0.00     0.000 S
ATOM     86   O  SGN C   5      21.265   3.058  61.5050  0.00  0.00     0.000 OA
ATOM     87   O  SGN C   5      23.628   2.838  61.9910  0.00  0.00     0.000 OA
ATOM     88   O  SGN C   5      22.523   5.031  62.1430  0.00  0.00     0.000 OA
ENDBRANCH 76 85
BRANCH 79 89
ATOM     89   C  SGN C   5      25.537   7.090  56.1630  0.00  0.00     0.000 C
ATOM     90   O  SGN C   5      26.092   8.427  56.2290  0.00  0.00     0.000 O
ATOM     91   S  SGN C   5      27.274   8.769  55.1990  0.00  0.00     0.000 S
ATOM     92   O  SGN C   5      28.263   7.734  55.3580  0.00  0.00     0.000 OA
ATOM     93   O  SGN C   5      26.696   8.779  53.8800  0.00  0.00     0.000 OA
ATOM     94   O  SGN C   5      27.726  10.063  55.6310  0.00  0.00     0.000 OA
ENDBRANCH 79 89
BRANCH 75 95
ATOM     95  O4  BDP C   6      23.013   6.807  59.2850  0.00  0.00     0.000 O
BRANCH 95 99
ATOM     96  C1  BDP C   6      19.180   8.744  59.3310  0.00  0.00     0.000 C
ATOM     97  C2  BDP C   6      19.317   7.432  58.6110  0.00  0.00     0.000 C
ATOM     98  C3  BDP C   6      20.587   6.644  58.9660  0.00  0.00     0.000 C
ATOM     99  C4  BDP C   6      21.823   7.529  58.9010  0.00  0.00     0.000 C
ATOM    100  C5  BDP C   6      21.535   8.812  59.7140  0.00  0.00     0.000 C
ATOM    101  O5  BDP C   6      20.405   9.391  59.0410  0.00  0.00     0.000 O
BRANCH 100 102
ATOM    102   C  BDP C   6      22.669   9.804  59.6550  0.00  0.00     0.000 C
ATOM    103   O  BDP C   6      23.612   9.781  60.4600  0.00  0.00     0.000 OA
ATOM    104   O  BDP C   6      22.627  10.648  58.7520  0.00  0.00     0.000 OA
ENDBRANCH 100 102
ENDBRANCH 95 99
ENDBRANCH 75 95
ENDBRANCH 74 78
ENDBRANCH 58 74
ENDBRANCH 57 61
ENDBRANCH 37 57
ENDBRANCH 36 40
ENDBRANCH 23 36
ENDBRANCH 22 26
ENDBRANCH 1 22
TORSDOF 20
ENDMDL
MODEL 57
REMARK VINA RESULT:      -1.5     32.033     36.581
ROOT
ATOM      1  C1  NGY C   1      46.664   5.192  41.1060  0.00  0.00     0.000 C
ATOM      2  C2  NGY C   1      47.463   3.904  41.2510  0.00  0.00     0.000 C
ATOM      3  C3  NGY C   1      48.894   4.216  41.6750  0.00  0.00     0.000 C
ATOM      4  C4  NGY C   1      49.482   5.200  40.6820  0.00  0.00     0.000 C
ATOM      5  C5  NGY C   1      48.639   6.472  40.6950  0.00  0.00     0.000 C
ATOM      6  O5  NGY C   1      47.296   6.131  40.2630  0.00  0.00     0.000 O
ATOM      7   O  NGY C   1      49.638   3.007  41.7330  0.00  0.00     0.000 O
ATOM      9  HD  NGY C   1      49.678   2.262  41.2930  0.00  0.00     0.000 HD
ATOM      9   O  NGY C   1      50.831   5.505  41.0050  0.00  0.00     0.000 O
ATOM     11  HD  NGY C   1      50.871   4.760  40.5650  0.00  0.00     0.000 HD
ENDROOT
BRANCH 2 13
ATOM     11   N  NGY C   1      46.565   3.082  42.0280  0.00  0.00     0.000 N
ATOM     13  HD  NGY C   1      46.835   2.303  41.7640  0.00  0.00     0.000 HD
ATOM     13   C  NGY C   1      46.598   1.752  41.9560  0.00  0.00     0.000 C
ATOM     14   O  NGY C   1      47.295   1.177  41.1190  0.00  0.00     0.000 OA
ATOM     15   C  NGY C   1      45.770   1.004  42.9560  0.00  0.00     0.000 C
ENDBRANCH 2 13
BRANCH 5 16
ATOM     16   C  NGY C   1      49.100   7.550  39.7670  0.00  0.00     0.000 C
ATOM     17   O  NGY C   1      48.359   7.618  36.1750  0.00  0.00     0.000 OA
ATOM     18   O  NGY C   1      48.822   7.149  38.4220  0.00  0.00     0.000 O
ATOM     19   S  NGY C   1      48.816   8.304  37.3570  0.00  0.00     0.000 S
ATOM     20   O  NGY C   1      50.171   8.772  37.2300  0.00  0.00     0.000 OA
ATOM     21   O  NGY C   1      47.907   9.299  37.9000  0.00  0.00     0.000 OA
ENDBRANCH 5 16
BRANCH 1 22
ATOM     22  O4  BDP C   2      46.410   5.687  42.3360  0.00  0.00     0.000 O
BRANCH 22 26
ATOM     23  C1  BDP C   2      43.693   7.396  44.9160  0.00  0.00     0.000 C
ATOM     24  C2  BDP C   2      43.102   6.521  43.8370  0.00  0.00     0.000 C
ATOM     25  C3  BDP C   2      44.188   5.685  43.2120  0.00  0.00     0.000 C
ATOM     26  C4  BDP C   2      45.336   6.574  42.7450  0.00  0.00     0.000 C
ATOM     27  C5  BDP C   2      45.733   7.534  43.8590  0.00  0.00     0.000 C
ATOM     28  O5  BDP C   2      44.622   8.345  44.3220  0.00  0.00     0.000 O
ATOM     29   O  BDP C   2      42.191   5.554  44.3580  0.00  0.00     0.000 O
ATOM     31  HD  BDP C   2      42.183   4.779  43.9700  0.00  0.00     0.000 HD
ATOM     31   O  BDP C   2      43.607   5.014  42.1020  0.00  0.00     0.000 O
ATOM     33  HD  BDP C   2      43.600   4.240  41.7130  0.00  0.00     0.000 HD
BRANCH 27 33
ATOM     33   C  BDP C   2      46.801   8.510  43.4270  0.00  0.00     0.000 C
ATOM     34   O  BDP C   2      48.018   8.306  43.6500  0.00  0.00     0.000 OA
ATOM     35   O  BDP C   2      46.455   9.542  42.8760  0.00  0.00     0.000 OA
ENDBRANCH 27 33
BRANCH 23 36
ATOM     36  O4  SGN C   3      42.797   8.103  45.6440  0.00  0.00     0.000 O
BRANCH 36 40
ATOM     37  C1  SGN C   3      41.833   8.899  49.6280  0.00  0.00     0.000 C
ATOM     38  C2  SGN C   3      42.232  10.087  48.7380  0.00  0.00     0.000 C
ATOM     39  C3  SGN C   3      42.122   9.713  47.2680  0.00  0.00     0.000 C
ATOM     40  C4  SGN C   3      42.973   8.487  47.0110  0.00  0.00     0.000 C
ATOM     41  C5  SGN C   3      42.528   7.381  47.9410  0.00  0.00     0.000 C
ATOM     42  O5  SGN C   3      42.677   7.804  49.3050  0.00  0.00     0.000 O
ATOM     43   O  SGN C   3      42.553  10.809  46.4710  0.00  0.00     0.000 O
ATOM     45  HD  SGN C   3      42.683  10.066  46.0460  0.00  0.00     0.000 HD
BRANCH 38 47
ATOM     45   N  SGN C   3      42.241  10.528  50.1450  0.00  0.00     0.000 N
ATOM     47  HD  SGN C   3      42.479   9.942  49.5530  0.00  0.00     0.000 HD
ATOM     47   S  SGN C   3      41.788  12.043  50.2990  0.00  0.00     0.000 S
ATOM     48   O  SGN C   3      42.726  12.928  49.7040  0.00  0.00     0.000 OA
ATOM     49   O  SGN C   3      40.445  12.119  49.8230  0.00  0.00     0.000 OA
ATOM     50   O  SGN C   3      41.857  12.228  51.7470  0.00  0.00     0.000 OA
ENDBRANCH 38 47
BRANCH 41 51
ATOM     51   C  SGN C   3      43.296   6.097  47.7820  0.00  0.00     0.000 C
ATOM     52   O  SGN C   3      46.955   5.586  48.2610  0.00  0.00     0.000 OA
ATOM     53   O  SGN C   3      45.137   4.092  48.7020  0.00  0.00     0.000 OA
ATOM     54   O  SGN C   3      45.624   4.785  46.4560  0.00  0.00     0.000 OA
ATOM     55   O  SGN C   3      44.649   6.333  48.1060  0.00  0.00     0.000 O
ATOM     56   S  SGN C   3      45.688   5.081  47.8560  0.00  0.00     0.000 S
ENDBRANCH 41 51
BRANCH 37 57
ATOM     57  O4  IDS C   4      40.546   8.497  49.4900  0.00  0.00     0.000 O
BRANCH 57 61
ATOM     58  C1  IDS C   4      36.954   7.936  50.6100  0.00  0.00     0.000 C
ATOM     59  C2  IDS C   4      37.504   9.327  50.6310  0.00  0.00     0.000 C
ATOM     60  C3  IDS C   4      38.953   9.383  51.1200  0.00  0.00     0.000 C
ATOM     61  C4  IDS C   4      39.851   8.220  50.7220  0.00  0.00     0.000 C
ATOM     62  C5  IDS C   4      39.044   6.921  50.6160  0.00  0.00     0.000 C
ATOM     63  O5  IDS C   4      37.842   7.107  49.8810  0.00  0.00     0.000 O
ATOM     64   O  IDS C   4      38.869   9.419  52.5320  0.00  0.00     0.000 O
ATOM     66  HD  IDS C   4      39.189   8.690  52.8730  0.00  0.00     0.000 HD
BRANCH 59 66
ATOM     66   O  IDS C   4      37.491   9.935  49.2870  0.00  0.00     0.000 O
ATOM     67   S  IDS C   4      36.470  11.133  49.0580  0.00  0.00     0.000 S
ATOM     68   O  IDS C   4      36.965  12.161  49.9430  0.00  0.00     0.000 OA
ATOM     69   O  IDS C   4      36.569  11.444  47.6460  0.00  0.00     0.000 OA
ATOM     70   O  IDS C   4      35.155  10.662  49.4660  0.00  0.00     0.000 OA
ENDBRANCH 59 66
BRANCH 62 71
ATOM     71   C  IDS C   4      39.793   5.812  49.9020  0.00  0.00     0.000 C
ATOM     72   O  IDS C   4      39.367   5.365  48.8540  0.00  0.00     0.000 OA
ATOM     73   O  IDS C   4      40.785   5.308  50.4640  0.00  0.00     0.000 OA
ENDBRANCH 62 71
BRANCH 58 74
ATOM     74  O4  SGN C   5      36.458   7.496  51.8020  0.00  0.00     0.000 O
BRANCH 74 78
ATOM     75  C1  SGN C   5      33.670   4.983  53.6330  0.00  0.00     0.000 C
ATOM     76  C2  SGN C   5      35.095   4.417  53.4860  0.00  0.00     0.000 C
ATOM     77  C3  SGN C   5      36.086   5.532  53.1250  0.00  0.00     0.000 C
ATOM     78  C4  SGN C   5      35.570   6.393  51.9810  0.00  0.00     0.000 C
ATOM     79  C5  SGN C   5      34.167   6.883  52.3080  0.00  0.00     0.000 C
ATOM     80  O5  SGN C   5      33.287   5.743  52.4950  0.00  0.00     0.000 O
ATOM     81   O  SGN C   5      37.338   4.944  52.7840  0.00  0.00     0.000 O
ATOM     83  HD  SGN C   5      37.638   4.244  53.1950  0.00  0.00     0.000 HD
BRANCH 76 85
ATOM     83   N  SGN C   5      35.133   2.988  53.8180  0.00  0.00     0.000 N
ATOM     85  HD  SGN C   5      34.926   2.310  54.3170  0.00  0.00     0.000 HD
ATOM     85   S  SGN C   5      35.301   2.275  55.2530  0.00  0.00     0.000 S
ATOM     86   O  SGN C   5      35.237   0.862  55.1170  0.00  0.00     0.000 OA
ATOM     87   O  SGN C   5      36.469   2.814  55.8540  0.00  0.00     0.000 OA
ATOM     88   O  SGN C   5      34.009   2.816  55.8590  0.00  0.00     0.000 OA
ENDBRANCH 76 85
BRANCH 79 89
ATOM     89   C  SGN C   5      33.573   7.773  51.2350  0.00  0.00     0.000 C
ATOM     90   O  SGN C   5      32.138   7.583  51.1810  0.00  0.00     0.000 O
ATOM     91   S  SGN C   5      31.259   8.855  50.7500  0.00  0.00     0.000 S
ATOM     92   O  SGN C   5      31.657   9.936  51.6130  0.00  0.00     0.000 OA
ATOM     93   O  SGN C   5      31.550   9.121  49.3640  0.00  0.00     0.000 OA
ATOM     94   O  SGN C   5      29.908   8.414  50.9710  0.00  0.00     0.000 OA
ENDBRANCH 79 89
BRANCH 75 95
ATOM     95  O4  BDP C   6      33.703   5.790  54.7350  0.00  0.00     0.000 O
BRANCH 95 99
ATOM     96  C1  BDP C   6      30.296   7.107  56.9950  0.00  0.00     0.000 C
ATOM     97  C2  BDP C   6      30.106   6.027  55.9680  0.00  0.00     0.000 C
ATOM     98  C3  BDP C   6      31.410   5.365  55.4960  0.00  0.00     0.000 C
ATOM     99  C4  BDP C   6      32.457   6.406  55.1290  0.00  0.00     0.000 C
ATOM    100  C5  BDP C   6      32.557   7.416  56.2960  0.00  0.00     0.000 C
ATOM    101  O5  BDP C   6      31.233   7.969  56.3760  0.00  0.00     0.000 O
BRANCH 100 102
ATOM    102   C  BDP C   6      33.514   8.545  56.0070  0.00  0.00     0.000 C
ATOM    103   O  BDP C   6      34.727   8.356  55.8360  0.00  0.00     0.000 OA
ATOM    104   O  BDP C   6      33.033   9.682  55.9360  0.00  0.00     0.000 OA
ENDBRANCH 100 102
ENDBRANCH 95 99
ENDBRANCH 75 95
ENDBRANCH 74 78
ENDBRANCH 58 74
ENDBRANCH 57 61
ENDBRANCH 37 57
ENDBRANCH 36 40
ENDBRANCH 23 36
ENDBRANCH 22 26
ENDBRANCH 1 22
TORSDOF 20
ENDMDL
MODEL 58
REMARK VINA RESULT:      -1.1     31.887     36.777
ROOT
ATOM      1  C1  NGY C   1      43.930   3.993  39.9360  0.00  0.00     0.000 C
ATOM      2  C2  NGY C   1      44.913   2.847  39.7390  0.00  0.00     0.000 C
ATOM      3  C3  NGY C   1      45.982   3.237  38.7230  0.00  0.00     0.000 C
ATOM      4  C4  NGY C   1      45.289   3.684  37.4500  0.00  0.00     0.000 C
ATOM      5  C5  NGY C   1      44.402   4.884  37.7710  0.00  0.00     0.000 C
ATOM      6  O5  NGY C   1      43.389   4.460  38.7190  0.00  0.00     0.000 O
ATOM      7   O  NGY C   1      46.842   2.128  38.5020  0.00  0.00     0.000 O
ATOM      9  HD  NGY C   1      46.770   1.267  38.4520  0.00  0.00     0.000 HD
ATOM      9   O  NGY C   1      46.236   4.030  36.4500  0.00  0.00     0.000 O
ATOM     11  HD  NGY C   1      46.165   3.168  36.4000  0.00  0.00     0.000 HD
ENDROOT
BRANCH 2 13
ATOM     11   N  NGY C   1      44.804   2.245  41.0460  0.00  0.00     0.000 N
ATOM     13  HD  NGY C   1      45.427   1.647  40.9710  0.00  0.00     0.000 HD
ATOM     13   C  NGY C   1      45.589   1.234  41.4160  0.00  0.00     0.000 C
ATOM     14   O  NGY C   1      46.338   0.680  40.6100  0.00  0.00     0.000 OA
ATOM     15   C  NGY C   1      45.531   0.830  42.8580  0.00  0.00     0.000 C
ENDBRANCH 2 13
BRANCH 5 16
ATOM     16   C  NGY C   1      43.654   5.450  36.6060  0.00  0.00     0.000 C
ATOM     17   O  NGY C   1      44.443   8.668  35.0310  0.00  0.00     0.000 OA
ATOM     18   O  NGY C   1      44.084   6.798  36.3940  0.00  0.00     0.000 O
ATOM     19   S  NGY C   1      43.759   7.401  34.9800  0.00  0.00     0.000 S
ATOM     20   O  NGY C   1      42.330   7.552  34.9010  0.00  0.00     0.000 OA
ATOM     21   O  NGY C   1      44.294   6.432  34.0380  0.00  0.00     0.000 OA
ENDBRANCH 5 16
BRANCH 1 22
ATOM     22  O4  BDP C   2      44.538   4.969  40.6430  0.00  0.00     0.000 O
BRANCH 22 26
ATOM     23  C1  BDP C   2      44.443   7.969  43.4640  0.00  0.00     0.000 C
ATOM     24  C2  BDP C   2      43.897   6.635  43.9150  0.00  0.00     0.000 C
ATOM     25  C3  BDP C   2      44.320   5.562  42.9460  0.00  0.00     0.000 C
ATOM     26  C4  BDP C   2      43.933   5.952  41.5240  0.00  0.00     0.000 C
ATOM     27  C5  BDP C   2      44.382   7.380  41.2400  0.00  0.00     0.000 C
ATOM     28  O5  BDP C   2      43.844   8.336  42.1900  0.00  0.00     0.000 O
ATOM     29   O  BDP C   2      44.460   6.208  45.1560  0.00  0.00     0.000 O
ATOM     31  HD  BDP C   2      44.596   5.358  45.2480  0.00  0.00     0.000 HD
ATOM     31   O  BDP C   2      43.642   4.371  43.3270  0.00  0.00     0.000 O
ATOM     33  HD  BDP C   2      43.779   3.520  43.4190  0.00  0.00     0.000 HD
BRANCH 27 33
ATOM     33   C  BDP C   2      43.942   7.863  39.8780  0.00  0.00     0.000 C
ATOM     34   O  BDP C   2      44.711   8.499  39.1180  0.00  0.00     0.000 OA
ATOM     35   O  BDP C   2      42.791   7.654  39.5320  0.00  0.00     0.000 OA
ENDBRANCH 27 33
BRANCH 23 36
ATOM     36  O4  SGN C   3      44.243   8.997  44.3210  0.00  0.00     0.000 O
BRANCH 36 40
ATOM     37  C1  SGN C   3      45.882  12.447  46.0060  0.00  0.00     0.000 C
ATOM     38  C2  SGN C   3      45.335  12.543  44.5720  0.00  0.00     0.000 C
ATOM     39  C3  SGN C   3      44.405  11.374  44.2780  0.00  0.00     0.000 C
ATOM     40  C4  SGN C   3      45.152  10.082  44.5260  0.00  0.00     0.000 C
ATOM     41  C5  SGN C   3      45.673  10.084  45.9470  0.00  0.00     0.000 C
ATOM     42  O5  SGN C   3      46.551  11.203  46.1400  0.00  0.00     0.000 O
ATOM     43   O  SGN C   3      43.962  11.456  42.9290  0.00  0.00     0.000 O
ATOM     45  HD  SGN C   3      43.960  10.630  43.1910  0.00  0.00     0.000 HD
BRANCH 38 47
ATOM     45   N  SGN C   3      45.825  13.556  43.6210  0.00  0.00     0.000 N
ATOM     47  HD  SGN C   3      45.622  12.729  43.7800  0.00  0.00     0.000 HD
ATOM     47   S  SGN C   3      45.546  15.036  44.1280  0.00  0.00     0.000 S
ATOM     48   O  SGN C   3      44.155  15.316  44.1710  0.00  0.00     0.000 OA
ATOM     49   O  SGN C   3      46.269  15.193  45.3480  0.00  0.00     0.000 OA
ATOM     50   O  SGN C   3      46.129  15.834  43.0510  0.00  0.00     0.000 OA
ENDBRANCH 38 47
BRANCH 41 51
ATOM     51   C  SGN C   3      46.435   8.843  46.3250  0.00  0.00     0.000 C
ATOM     52   O  SGN C   3      48.787   8.425  49.1840  0.00  0.00     0.000 OA
ATOM     53   O  SGN C   3      47.285   6.840  48.2020  0.00  0.00     0.000 OA
ATOM     54   O  SGN C   3      49.128   7.715  46.9360  0.00  0.00     0.000 OA
ATOM     55   O  SGN C   3      47.171   9.101  47.5000  0.00  0.00     0.000 O
ATOM     56   S  SGN C   3      48.188   7.908  48.0000  0.00  0.00     0.000 S
ENDBRANCH 41 51
BRANCH 37 57
ATOM     57  O4  IDS C   4      44.940  12.529  46.9770  0.00  0.00     0.000 O
BRANCH 57 61
ATOM     58  C1  IDS C   4      43.975  14.510  50.0780  0.00  0.00     0.000 C
ATOM     59  C2  IDS C   4      44.899  15.138  49.0830  0.00  0.00     0.000 C
ATOM     60  C3  IDS C   4      45.924  14.149  48.5210  0.00  0.00     0.000 C
ATOM     61  C4  IDS C   4      45.446  12.719  48.3120  0.00  0.00     0.000 C
ATOM     62  C5  IDS C   4      44.390  12.341  49.3580  0.00  0.00     0.000 C
ATOM     63  O5  IDS C   4      43.402  13.351  49.4970  0.00  0.00     0.000 O
ATOM     64   O  IDS C   4      46.981  14.134  49.4610  0.00  0.00     0.000 O
ATOM     66  HD  IDS C   4      47.028  13.363  49.8520  0.00  0.00     0.000 HD
BRANCH 59 66
ATOM     66   O  IDS C   4      44.163  15.681  47.9260  0.00  0.00     0.000 O
ATOM     67   S  IDS C   4      44.177  17.262  47.7520  0.00  0.00     0.000 S
ATOM     68   O  IDS C   4      45.567  17.553  47.4960  0.00  0.00     0.000 OA
ATOM     69   O  IDS C   4      43.283  17.524  46.6410  0.00  0.00     0.000 OA
ATOM     70   O  IDS C   4      43.732  17.837  49.0120  0.00  0.00     0.000 OA
ENDBRANCH 59 66
BRANCH 62 71
ATOM     71   C  IDS C   4      43.633  11.074  49.0070  0.00  0.00     0.000 C
ATOM     72   O  IDS C   4      44.178   9.991  49.1030  0.00  0.00     0.000 OA
ATOM     73   O  IDS C   4      42.488  11.181  48.5240  0.00  0.00     0.000 OA
ENDBRANCH 62 71
BRANCH 58 74
ATOM     74  O4  SGN C   5      44.458  14.449  51.3520  0.00  0.00     0.000 O
BRANCH 74 78
ATOM     75  C1  SGN C   5      43.600  14.833  55.4210  0.00  0.00     0.000 C
ATOM     76  C2  SGN C   5      43.126  13.529  54.7500  0.00  0.00     0.000 C
ATOM     77  C3  SGN C   5      43.786  13.355  53.3770  0.00  0.00     0.000 C
ATOM     78  C4  SGN C   5      43.693  14.626  52.5440  0.00  0.00     0.000 C
ATOM     79  C5  SGN C   5      44.225  15.801  53.3510  0.00  0.00     0.000 C
ATOM     80  O5  SGN C   5      43.438  15.954  54.5620  0.00  0.00     0.000 O
ATOM     81   O  SGN C   5      43.164  12.267  52.7000  0.00  0.00     0.000 O
ATOM     83  HD  SGN C   5      42.903  11.558  53.1230  0.00  0.00     0.000 HD
BRANCH 76 85
ATOM     83   N  SGN C   5      42.853  13.162  56.1460  0.00  0.00     0.000 N
ATOM     85  HD  SGN C   5      42.959  12.656  56.8400  0.00  0.00     0.000 HD
ATOM     85   S  SGN C   5      42.625  11.705  56.7940  0.00  0.00     0.000 S
ATOM     86   O  SGN C   5      42.435  11.811  58.1990  0.00  0.00     0.000 OA
ATOM     87   O  SGN C   5      41.596  11.072  56.0490  0.00  0.00     0.000 OA
ATOM     88   O  SGN C   5      44.017  11.164  56.4780  0.00  0.00     0.000 OA
ENDBRANCH 76 85
BRANCH 79 89
ATOM     89   C  SGN C   5      44.197  17.114  52.5960  0.00  0.00     0.000 C
ATOM     90   O  SGN C   5      43.796  18.184  53.4870  0.00  0.00     0.000 O
ATOM     91   S  SGN C   5      44.408  19.637  53.1900  0.00  0.00     0.000 S
ATOM     92   O  SGN C   5      45.836  19.469  53.1090  0.00  0.00     0.000 OA
ATOM     93   O  SGN C   5      43.836  20.091  51.9480  0.00  0.00     0.000 OA
ATOM     94   O  SGN C   5      43.986  20.412  54.3250  0.00  0.00     0.000 OA
ENDBRANCH 79 89
BRANCH 75 95
ATOM     95  O4  BDP C   6      44.926  14.650  55.6930  0.00  0.00     0.000 O
BRANCH 95 99
ATOM     96  C1  BDP C   6      46.931  16.013  59.2380  0.00  0.00     0.000 C
ATOM     97  C2  BDP C   6      45.436  16.138  59.1610  0.00  0.00     0.000 C
ATOM     98  C3  BDP C   6      44.785  15.295  58.0550  0.00  0.00     0.000 C
ATOM     99  C4  BDP C   6      45.500  15.481  56.7250  0.00  0.00     0.000 C
ATOM    100  C5  BDP C   6      47.015  15.286  56.9660  0.00  0.00     0.000 C
ATOM    101  O5  BDP C   6      47.340  16.313  57.9170  0.00  0.00     0.000 O
BRANCH 100 102
ATOM    102   C  BDP C   6      47.837  15.525  55.7250  0.00  0.00     0.000 C
ATOM    103   O  BDP C   6      48.242  14.597  55.0110  0.00  0.00     0.000 OA
ATOM    104   O  BDP C   6      48.084  16.702  55.4370  0.00  0.00     0.000 OA
ENDBRANCH 100 102
ENDBRANCH 95 99
ENDBRANCH 75 95
ENDBRANCH 74 78
ENDBRANCH 58 74
ENDBRANCH 57 61
ENDBRANCH 37 57
ENDBRANCH 36 40
ENDBRANCH 23 36
ENDBRANCH 22 26
ENDBRANCH 1 22
TORSDOF 20
ENDMDL
MODEL 59
REMARK VINA RESULT:      -1.1     31.984     35.005
ROOT
ATOM      1  C1  NGY C   1      55.208  15.284  27.6600  0.00  0.00     0.000 C
ATOM      2  C2  NGY C   1      56.692  14.998  27.4810  0.00  0.00     0.000 C
ATOM      3  C3  NGY C   1      57.523  15.993  28.2850  0.00  0.00     0.000 C
ATOM      4  C4  NGY C   1      57.110  17.395  27.8780  0.00  0.00     0.000 C
ATOM      5  C5  NGY C   1      55.626  17.576  28.1840  0.00  0.00     0.000 C
ATOM      6  O5  NGY C   1      54.876  16.628  27.3820  0.00  0.00     0.000 O
ATOM      7   O  NGY C   1      58.902  15.752  28.0440  0.00  0.00     0.000 O
ATOM      9  HD  NGY C   1      59.400  15.511  27.3780  0.00  0.00     0.000 HD
ATOM      9   O  NGY C   1      57.874  18.371  28.5700  0.00  0.00     0.000 O
ATOM     11  HD  NGY C   1      58.372  18.130  27.9040  0.00  0.00     0.000 HD
ENDROOT
BRANCH 2 13
ATOM     11   N  NGY C   1      57.837  14.132  27.3240  0.00  0.00     0.000 N
ATOM     13  HD  NGY C   1      57.423  13.379  27.2200  0.00  0.00     0.000 HD
ATOM     13   C  NGY C   1      57.700  12.821  27.1330  0.00  0.00     0.000 C
ATOM     14   O  NGY C   1      56.599  12.275  27.2250  0.00  0.00     0.000 OA
ATOM     15   C  NGY C   1      58.941  12.060  26.7760  0.00  0.00     0.000 C
ENDBRANCH 2 13
BRANCH 5 16
ATOM     16   C  NGY C   1      55.067  18.922  27.8460  0.00  0.00     0.000 C
ATOM     17   O  NGY C   1      55.656  20.643  24.6600  0.00  0.00     0.000 OA
ATOM     18   O  NGY C   1      55.669  19.376  26.6300  0.00  0.00     0.000 O
ATOM     19   S  NGY C   1      54.906  20.531  25.8850  0.00  0.00     0.000 S
ATOM     20   O  NGY C   1      55.014  21.710  26.7040  0.00  0.00     0.000 OA
ATOM     21   O  NGY C   1      53.544  20.041  25.7490  0.00  0.00     0.000 OA
ENDBRANCH 5 16
BRANCH 1 22
ATOM     22  O4  BDP C   2      54.839  14.904  28.9010  0.00  0.00     0.000 O
BRANCH 22 26
ATOM     23  C1  BDP C   2      52.085  13.274  31.4940  0.00  0.00     0.000 C
ATOM     24  C2  BDP C   2      52.355  12.470  30.2440  0.00  0.00     0.000 C
ATOM     25  C3  BDP C   2      53.613  12.971  29.5840  0.00  0.00     0.000 C
ATOM     26  C4  BDP C   2      53.528  14.477  29.3590  0.00  0.00     0.000 C
ATOM     27  C5  BDP C   2      53.078  15.166  30.6400  0.00  0.00     0.000 C
ATOM     28  O5  BDP C   2      51.813  14.658  31.1360  0.00  0.00     0.000 O
ATOM     29   O  BDP C   2      52.647  11.102  30.5290  0.00  0.00     0.000 O
ATOM     31  HD  BDP C   2      53.235  10.717  30.0230  0.00  0.00     0.000 HD
ATOM     31   O  BDP C   2      53.722  12.296  28.3370  0.00  0.00     0.000 O
ATOM     33  HD  BDP C   2      54.310  11.911  27.8310  0.00  0.00     0.000 HD
BRANCH 27 33
ATOM     33   C  BDP C   2      52.880  16.652  30.4570  0.00  0.00     0.000 C
ATOM     34   O  BDP C   2      52.032  17.117  29.6580  0.00  0.00     0.000 OA
ATOM     35   O  BDP C   2      53.595  17.415  31.0860  0.00  0.00     0.000 OA
ENDBRANCH 27 33
BRANCH 23 36
ATOM     36  O4  SGN C   3      51.051  12.837  32.2510  0.00  0.00     0.000 O
BRANCH 36 40
ATOM     37  C1  SGN C   3      49.605  12.276  36.1270  0.00  0.00     0.000 C
ATOM     38  C2  SGN C   3      49.760  13.720  35.6250  0.00  0.00     0.000 C
ATOM     39  C3  SGN C   3      49.864  13.748  34.1070  0.00  0.00     0.000 C
ATOM     40  C4  SGN C   3      51.015  12.862  33.6810  0.00  0.00     0.000 C
ATOM     41  C5  SGN C   3      50.792  11.472  34.2360  0.00  0.00     0.000 C
ATOM     42  O5  SGN C   3      50.720  11.528  35.6690  0.00  0.00     0.000 O
ATOM     43   O  SGN C   3      50.066  15.088  33.6750  0.00  0.00     0.000 O
ATOM     45  HD  SGN C   3      50.414  14.538  33.1030  0.00  0.00     0.000 HD
BRANCH 38 47
ATOM     45   N  SGN C   3      49.854  14.025  37.0640  0.00  0.00     0.000 N
ATOM     47  HD  SGN C   3      50.224  13.699  36.3520  0.00  0.00     0.000 HD
ATOM     47   S  SGN C   3      48.712  15.023  37.5390  0.00  0.00     0.000 S
ATOM     48   O  SGN C   3      48.869  16.307  36.9510  0.00  0.00     0.000 OA
ATOM     49   O  SGN C   3      47.469  14.362  37.3100  0.00  0.00     0.000 OA
ATOM     50   O  SGN C   3      49.001  15.148  38.9660  0.00  0.00     0.000 OA
ENDBRANCH 38 47
BRANCH 41 51
ATOM     51   C  SGN C   3      51.871  10.486  33.8770  0.00  0.00     0.000 C
ATOM     52   O  SGN C   3      55.553  10.962  34.1840  0.00  0.00     0.000 OA
ATOM     53   O  SGN C   3      54.245   8.976  34.4570  0.00  0.00     0.000 OA
ATOM     54   O  SGN C   3      54.379  10.059  32.3190  0.00  0.00     0.000 OA
ATOM     55   O  SGN C   3      53.125  11.047  34.1960  0.00  0.00     0.000 O
ATOM     56   S  SGN C   3      54.448  10.179  33.7450  0.00  0.00     0.000 S
ENDBRANCH 41 51
BRANCH 37 57
ATOM     57  O4  IDS C   4      48.476  11.650  35.7110  0.00  0.00     0.000 O
BRANCH 57 61
ATOM     58  C1  IDS C   4      45.597   9.602  37.1220  0.00  0.00     0.000 C
ATOM     59  C2  IDS C   4      46.434  10.408  38.0640  0.00  0.00     0.000 C
ATOM     60  C3  IDS C   4      47.924  10.365  37.7160  0.00  0.00     0.000 C
ATOM     61  C4  IDS C   4      48.277  10.323  36.2360  0.00  0.00     0.000 C
ATOM     62  C5  IDS C   4      47.201   9.575  35.4410  0.00  0.00     0.000 C
ATOM     63  O5  IDS C   4      45.893  10.002  35.7940  0.00  0.00     0.000 O
ATOM     64   O  IDS C   4      48.414   9.184  38.3240  0.00  0.00     0.000 O
ATOM     66  HD  IDS C   4      48.653   8.610  37.7220  0.00  0.00     0.000 HD
BRANCH 59 66
ATOM     66   O  IDS C   4      46.044  11.831  38.0550  0.00  0.00     0.000 O
ATOM     67   S  IDS C   4      45.411  12.403  39.3980  0.00  0.00     0.000 S
ATOM     68   O  IDS C   4      46.499  12.306  40.3410  0.00  0.00     0.000 OA
ATOM     69   O  IDS C   4      45.003  13.755  39.0730  0.00  0.00     0.000 OA
ATOM     70   O  IDS C   4      44.307  11.527  39.7600  0.00  0.00     0.000 OA
ENDBRANCH 59 66
BRANCH 62 71
ATOM     71   C  IDS C   4      47.310   9.790  33.9430  0.00  0.00     0.000 C
ATOM     72   O  IDS C   4      47.249  10.914  33.4820  0.00  0.00     0.000 OA
ATOM     73   O  IDS C   4      47.358   8.789  33.2020  0.00  0.00     0.000 OA
ENDBRANCH 62 71
BRANCH 58 74
ATOM     74  O4  SGN C   5      45.518   8.273  37.4150  0.00  0.00     0.000 O
BRANCH 74 78
ATOM     75  C1  SGN C   5      43.091   4.878  37.5700  0.00  0.00     0.000 C
ATOM     76  C2  SGN C   5      43.546   5.320  36.1660  0.00  0.00     0.000 C
ATOM     77  C3  SGN C   5      44.686   6.343  36.2630  0.00  0.00     0.000 C
ATOM     78  C4  SGN C   5      44.363   7.449  37.2570  0.00  0.00     0.000 C
ATOM     79  C5  SGN C   5      43.959   6.833  38.5880  0.00  0.00     0.000 C
ATOM     80  O5  SGN C   5      42.790   5.993  38.3980  0.00  0.00     0.000 O
ATOM     81   O  SGN C   5      44.929   6.887  34.9690  0.00  0.00     0.000 O
ATOM     83  HD  SGN C   5      44.872   6.402  34.2540  0.00  0.00     0.000 HD
BRANCH 76 85
ATOM     83   N  SGN C   5      43.967   4.070  35.5200  0.00  0.00     0.000 N
ATOM     85  HD  SGN C   5      44.023   3.541  34.8370  0.00  0.00     0.000 HD
ATOM     85   S  SGN C   5      43.171   3.142  34.4720  0.00  0.00     0.000 S
ATOM     86   O  SGN C   5      43.978   2.043  34.0680  0.00  0.00     0.000 OA
ATOM     87   O  SGN C   5      41.912   2.839  35.0530  0.00  0.00     0.000 OA
ATOM     88   O  SGN C   5      43.085   4.184  33.3600  0.00  0.00     0.000 OA
ENDBRANCH 76 85
BRANCH 79 89
ATOM     89   C  SGN C   5      43.640   7.860  39.6560  0.00  0.00     0.000 C
ATOM     90   O  SGN C   5      42.673   7.314  40.5860  0.00  0.00     0.000 O
ATOM     91   S  SGN C   5      42.766   7.825  42.1050  0.00  0.00     0.000 S
ATOM     92   O  SGN C   5      44.130   7.622  42.5190  0.00  0.00     0.000 OA
ATOM     93   O  SGN C   5      42.391   9.215  42.1080  0.00  0.00     0.000 OA
ATOM     94   O  SGN C   5      41.827   6.982  42.7950  0.00  0.00     0.000 OA
ENDBRANCH 79 89
BRANCH 75 95
ATOM     95  O4  BDP C   6      44.140   4.182  38.1000  0.00  0.00     0.000 O
BRANCH 95 99
ATOM     96  C1  BDP C   6      44.132   1.008  40.9930  0.00  0.00     0.000 C
ATOM     97  C2  BDP C   6      42.931   1.179  40.1060  0.00  0.00     0.000 C
ATOM     98  C3  BDP C   6      43.173   2.065  38.8750  0.00  0.00     0.000 C
ATOM     99  C4  BDP C   6      43.862   3.367  39.2590  0.00  0.00     0.000 C
ATOM    100  C5  BDP C   6      45.088   3.019  40.1340  0.00  0.00     0.000 C
ATOM    101  O5  BDP C   6      44.514   2.344  41.2650  0.00  0.00     0.000 O
BRANCH 100 102
ATOM    102   C  BDP C   6      45.807   4.244  40.6410  0.00  0.00     0.000 C
ATOM    103   O  BDP C   6      46.739   4.771  40.0150  0.00  0.00     0.000 OA
ATOM    104   O  BDP C   6      45.417   4.717  41.7150  0.00  0.00     0.000 OA
ENDBRANCH 100 102
ENDBRANCH 95 99
ENDBRANCH 75 95
ENDBRANCH 74 78
ENDBRANCH 58 74
ENDBRANCH 57 61
ENDBRANCH 37 57
ENDBRANCH 36 40
ENDBRANCH 23 36
ENDBRANCH 22 26
ENDBRANCH 1 22
TORSDOF 20
ENDMDL
MODEL 60
REMARK VINA RESULT:      -0.9      9.855     15.722
ROOT
ATOM      1  C1  NGY C   1      19.083  37.579  29.6640  0.00  0.00     0.000 C
ATOM      2  C2  NGY C   1      19.092  36.390  30.6140  0.00  0.00     0.000 C
ATOM      3  C3  NGY C   1      17.667  36.023  31.0150  0.00  0.00     0.000 C
ATOM      4  C4  NGY C   1      16.998  37.261  31.5810  0.00  0.00     0.000 C
ATOM      5  C5  NGY C   1      16.982  38.344  30.5060  0.00  0.00     0.000 C
ATOM      6  O5  NGY C   1      18.355  38.676  30.1740  0.00  0.00     0.000 O
ATOM      7   O  NGY C   1      17.706  34.960  31.9560  0.00  0.00     0.000 O
ATOM      9  HD  NGY C   1      18.209  34.710  32.6150  0.00  0.00     0.000 HD
ATOM      9   O  NGY C   1      15.674  36.974  32.0060  0.00  0.00     0.000 O
ATOM     11  HD  NGY C   1      16.177  36.725  32.6650  0.00  0.00     0.000 HD
ENDROOT
BRANCH 2 13
ATOM     11   N  NGY C   1      19.965  35.459  29.9390  0.00  0.00     0.000 N
ATOM     13  HD  NGY C   1      20.273  35.038  30.6300  0.00  0.00     0.000 HD
ATOM     13   C  NGY C   1      20.690  34.567  30.6130  0.00  0.00     0.000 C
ATOM     14   O  NGY C   1      20.753  34.597  31.8430  0.00  0.00     0.000 OA
ATOM     15   C  NGY C   1      21.394  33.522  29.8020  0.00  0.00     0.000 C
ENDBRANCH 2 13
BRANCH 5 16
ATOM     16   C  NGY C   1      16.341  39.633  30.9110  0.00  0.00     0.000 C
ATOM     17   O  NGY C   1      12.823  40.460  30.2820  0.00  0.00     0.000 OA
ATOM     18   O  NGY C   1      15.039  39.704  30.3230  0.00  0.00     0.000 O
ATOM     19   S  NGY C   1      14.055  40.740  30.9750  0.00  0.00     0.000 S
ATOM     20   O  NGY C   1      14.563  42.054  30.6810  0.00  0.00     0.000 OA
ATOM     21   O  NGY C   1      14.069  40.417  32.3930  0.00  0.00     0.000 OA
ENDBRANCH 5 16
BRANCH 1 22
ATOM     22  O4  BDP C   2      18.629  37.170  28.4600  0.00  0.00     0.000 O
BRANCH 22 26
ATOM     23  C1  BDP C   2      18.464  37.629  24.3700  0.00  0.00     0.000 C
ATOM     24  C2  BDP C   2      19.821  37.852  24.9950  0.00  0.00     0.000 C
ATOM     25  C3  BDP C   2      19.828  37.306  26.3980  0.00  0.00     0.000 C
ATOM     26  C4  BDP C   2      18.664  37.884  27.1960  0.00  0.00     0.000 C
ATOM     27  C5  BDP C   2      17.375  37.760  26.3930  0.00  0.00     0.000 C
ATOM     28  O5  BDP C   2      17.461  38.397  25.0920  0.00  0.00     0.000 O
ATOM     29   O  BDP C   2      20.851  37.111  24.3400  0.00  0.00     0.000 O
ATOM     31  HD  BDP C   2      21.482  36.797  24.8430  0.00  0.00     0.000 HD
ATOM     31   O  BDP C   2      21.063  37.693  26.9870  0.00  0.00     0.000 O
ATOM     33  HD  BDP C   2      21.695  37.380  27.4900  0.00  0.00     0.000 HD
BRANCH 27 33
ATOM     33   C  BDP C   2      16.198  38.404  27.0870  0.00  0.00     0.000 C
ATOM     34   O  BDP C   2      16.083  39.649  27.1860  0.00  0.00     0.000 OA
ATOM     35   O  BDP C   2      15.357  37.680  27.5940  0.00  0.00     0.000 OA
ENDBRANCH 27 33
BRANCH 23 36
ATOM     36  O4  SGN C   3      18.368  37.958  23.0610  0.00  0.00     0.000 O
BRANCH 36 40
ATOM     37  C1  SGN C   3      16.242  34.789  21.3680  0.00  0.00     0.000 C
ATOM     38  C2  SGN C   3      17.700  34.990  20.9230  0.00  0.00     0.000 C
ATOM     39  C3  SGN C   3      18.444  35.868  21.9180  0.00  0.00     0.000 C
ATOM     40  C4  SGN C   3      17.700  37.178  22.0660  0.00  0.00     0.000 C
ATOM     41  C5  SGN C   3      16.275  36.885  22.4820  0.00  0.00     0.000 C
ATOM     42  O5  SGN C   3      15.638  36.068  21.4870  0.00  0.00     0.000 O
ATOM     43   O  SGN C   3      19.770  36.085  21.4520  0.00  0.00     0.000 O
ATOM     45  HD  SGN C   3      19.519  36.750  21.9470  0.00  0.00     0.000 HD
BRANCH 38 47
ATOM     45   N  SGN C   3      18.149  33.586  20.9200  0.00  0.00     0.000 N
ATOM     47  HD  SGN C   3      17.900  34.281  21.3730  0.00  0.00     0.000 HD
ATOM     47   S  SGN C   3      18.061  32.934  19.4730  0.00  0.00     0.000 S
ATOM     48   O  SGN C   3      16.714  32.817  19.0380  0.00  0.00     0.000 OA
ATOM     49   O  SGN C   3      18.942  33.679  18.6350  0.00  0.00     0.000 OA
ATOM     50   O  SGN C   3      18.568  31.586  19.7230  0.00  0.00     0.000 OA
ENDBRANCH 38 47
BRANCH 41 51
ATOM     51   C  SGN C   3      15.424  38.111  22.6690  0.00  0.00     0.000 C
ATOM     52   O  SGN C   3      11.785  38.461  21.9540  0.00  0.00     0.000 OA
ATOM     53   O  SGN C   3      13.106  39.483  23.6690  0.00  0.00     0.000 OA
ATOM     54   O  SGN C   3      13.512  39.988  21.3570  0.00  0.00     0.000 OA
ATOM     55   O  SGN C   3      14.092  37.799  22.3260  0.00  0.00     0.000 O
ATOM     56   S  SGN C   3      13.025  39.051  22.3260  0.00  0.00     0.000 S
ENDBRANCH 41 51
BRANCH 37 57
ATOM     57  O4  IDS C   4      16.095  34.139  22.5480  0.00  0.00     0.000 O
BRANCH 57 61
ATOM     58  C1  IDS C   4      13.981  31.142  23.5580  0.00  0.00     0.000 C
ATOM     59  C2  IDS C   4      14.028  31.535  22.1150  0.00  0.00     0.000 C
ATOM     60  C3  IDS C   4      14.000  33.052  21.9140  0.00  0.00     0.000 C
ATOM     61  C4  IDS C   4      14.735  33.890  22.9500  0.00  0.00     0.000 C
ATOM     62  C5  IDS C   4      14.684  33.218  24.3270  0.00  0.00     0.000 C
ATOM     63  O5  IDS C   4      15.004  31.836  24.2510  0.00  0.00     0.000 O
ATOM     64   O  IDS C   4      12.630  33.407  21.9440  0.00  0.00     0.000 O
ATOM     66  HD  IDS C   4      12.456  33.885  22.6440  0.00  0.00     0.000 HD
BRANCH 59 66
ATOM     66   O  IDS C   4      15.257  31.049  21.4600  0.00  0.00     0.000 O
ATOM     67   S  IDS C   4      15.091  29.823  20.4580  0.00  0.00     0.000 S
ATOM     68   O  IDS C   4      14.280  30.372  19.3990  0.00  0.00     0.000 OA
ATOM     69   O  IDS C   4      16.443  29.471  20.0720  0.00  0.00     0.000 OA
ATOM     70   O  IDS C   4      14.393  28.770  21.1780  0.00  0.00     0.000 OA
ENDBRANCH 59 66
BRANCH 62 71
ATOM     71   C  IDS C   4      15.671  33.812  25.3150  0.00  0.00     0.000 C
ATOM     72   O  IDS C   4      16.309  34.803  25.0190  0.00  0.00     0.000 OA
ATOM     73   O  IDS C   4      15.882  33.202  26.3830  0.00  0.00     0.000 OA
ENDBRANCH 62 71
BRANCH 58 74
ATOM     74  O4  SGN C   5      12.731  31.084  24.0980  0.00  0.00     0.000 O
BRANCH 74 78
ATOM     75  C1  SGN C   5      10.612  29.446  27.3020  0.00  0.00     0.000 C
ATOM     76  C2  SGN C   5      12.128  29.616  27.5110  0.00  0.00     0.000 C
ATOM     77  C3  SGN C   5      12.726  30.525  26.4290  0.00  0.00     0.000 C
ATOM     78  C4  SGN C   5      12.270  30.113  25.0360  0.00  0.00     0.000 C
ATOM     79  C5  SGN C   5      10.751  30.019  25.0070  0.00  0.00     0.000 C
ATOM     80  O5  SGN C   5      10.308  29.032  25.9760  0.00  0.00     0.000 O
ATOM     81   O  SGN C   5      14.146  30.481  26.5230  0.00  0.00     0.000 O
ATOM     83  HD  SGN C   5      14.550  30.433  27.2870  0.00  0.00     0.000 HD
BRANCH 76 85
ATOM     83   N  SGN C   5      12.073  30.145  28.8800  0.00  0.00     0.000 N
ATOM     85  HD  SGN C   5      12.415  30.280  29.6640  0.00  0.00     0.000 HD
ATOM     85   S  SGN C   5      12.586  29.480  30.2550  0.00  0.00     0.000 S
ATOM     86   O  SGN C   5      12.373  30.367  31.3450  0.00  0.00     0.000 OA
ATOM     87   O  SGN C   5      11.994  28.193  30.3440  0.00  0.00     0.000 OA
ATOM     88   O  SGN C   5      14.064  29.438  29.8770  0.00  0.00     0.000 OA
ENDBRANCH 76 85
BRANCH 79 89
ATOM     89   C  SGN C   5      10.196  29.636  23.6500  0.00  0.00     0.000 C
ATOM     90   O  SGN C   5       9.927  30.831  22.8770  0.00  0.00     0.000 O
ATOM     91   S  SGN C   5      10.089  30.711  21.2840  0.00  0.00     0.000 S
ATOM     92   O  SGN C   5      11.400  30.165  21.0500  0.00  0.00     0.000 OA
ATOM     93   O  SGN C   5       9.040  29.842  20.8160  0.00  0.00     0.000 OA
ATOM     94   O  SGN C   5       9.946  32.068  20.8340  0.00  0.00     0.000 OA
ENDBRANCH 79 89
BRANCH 75 95
ATOM     95  O4  BDP C   6      10.063  30.675  27.5360  0.00  0.00     0.000 O
BRANCH 95 99
ATOM     96  C1  BDP C   6       6.180  31.815  28.9750  0.00  0.00     0.000 C
ATOM     97  C2  BDP C   6       6.853  30.617  29.5850  0.00  0.00     0.000 C
ATOM     98  C3  BDP C   6       8.358  30.518  29.2920  0.00  0.00     0.000 C
ATOM     99  C4  BDP C   6       8.646  30.715  27.8110  0.00  0.00     0.000 C
ATOM    100  C5  BDP C   6       7.917  31.998  27.3480  0.00  0.00     0.000 C
ATOM    101  O5  BDP C   6       6.533  31.711  27.6090  0.00  0.00     0.000 O
BRANCH 100 102
ATOM    102   C  BDP C   6       8.069  32.252  25.8700  0.00  0.00     0.000 C
ATOM    103   O  BDP C   6       8.937  33.010  25.4150  0.00  0.00     0.000 OA
ATOM    104   O  BDP C   6       7.289  31.657  25.1180  0.00  0.00     0.000 OA
ENDBRANCH 100 102
ENDBRANCH 95 99
ENDBRANCH 75 95
ENDBRANCH 74 78
ENDBRANCH 58 74
ENDBRANCH 57 61
ENDBRANCH 37 57
ENDBRANCH 36 40
ENDBRANCH 23 36
ENDBRANCH 22 26
ENDBRANCH 1 22
TORSDOF 20
ENDMDL
MODEL 61
REMARK VINA RESULT:      -0.9     97.435    102.444
ROOT
ATOM      1  C1  NGY C   1     118.987  28.672  59.7610  0.00  0.00     0.000 C
ATOM      2  C2  NGY C   1     118.440  27.357  59.2240  0.00  0.00     0.000 C
ATOM      3  C3  NGY C   1     117.534  26.700  60.2600  0.00  0.00     0.000 C
ATOM      4  C4  NGY C   1     118.312  26.563  61.5540  0.00  0.00     0.000 C
ATOM      5  C5  NGY C   1     118.729  27.953  62.0240  0.00  0.00     0.000 C
ATOM      6  O5  NGY C   1     119.607  28.528  61.0210  0.00  0.00     0.000 O
ATOM      7   O  NGY C   1     117.094  25.443  59.7650  0.00  0.00     0.000 O
ATOM      9  HD  NGY C   1     117.420  24.796  59.2910  0.00  0.00     0.000 HD
ATOM      9   O  NGY C   1     117.530  25.924  62.5530  0.00  0.00     0.000 O
ATOM     11  HD  NGY C   1     117.855  25.277  62.0780  0.00  0.00     0.000 HD
ENDROOT
BRANCH 2 13
ATOM     11   N  NGY C   1     117.971  27.732  57.9100  0.00  0.00     0.000 N
ATOM     13  HD  NGY C   1     118.066  26.969  57.5110  0.00  0.00     0.000 HD
ATOM     13   C  NGY C   1     117.931  26.856  56.9070  0.00  0.00     0.000 C
ATOM     14   O  NGY C   1     118.425  25.733  57.0220  0.00  0.00     0.000 OA
ATOM     15   C  NGY C   1     117.235  27.297  55.6560  0.00  0.00     0.000 C
ENDBRANCH 2 13
BRANCH 5 16
ATOM     16   C  NGY C   1     119.503  27.986  63.3030  0.00  0.00     0.000 C
ATOM     17   O  NGY C   1     118.018  28.706  66.5800  0.00  0.00     0.000 OA
ATOM     18   O  NGY C   1     118.662  28.506  64.3370  0.00  0.00     0.000 O
ATOM     19   S  NGY C   1     119.126  28.206  65.8070  0.00  0.00     0.000 S
ATOM     20   O  NGY C   1     120.334  28.955  66.0330  0.00  0.00     0.000 OA
ATOM     21   O  NGY C   1     119.321  26.765  65.8430  0.00  0.00     0.000 OA
ENDBRANCH 5 16
BRANCH 1 22
ATOM     22  O4  BDP C   2     117.993  29.585  59.7720  0.00  0.00     0.000 O
BRANCH 22 26
ATOM     23  C1  BDP C   2     116.673  33.462  59.3400  0.00  0.00     0.000 C
ATOM     24  C2  BDP C   2     117.579  32.958  58.2420  0.00  0.00     0.000 C
ATOM     25  C3  BDP C   2     117.685  31.458  58.3220  0.00  0.00     0.000 C
ATOM     26  C4  BDP C   2     118.100  31.032  59.7270  0.00  0.00     0.000 C
ATOM     27  C5  BDP C   2     117.229  31.737  60.7590  0.00  0.00     0.000 C
ATOM     28  O5  BDP C   2     117.273  33.182  60.6360  0.00  0.00     0.000 O
ATOM     29   O  BDP C   2     117.038  33.188  56.9410  0.00  0.00     0.000 O
ATOM     31  HD  BDP C   2     117.191  32.579  56.3440  0.00  0.00     0.000 HD
ATOM     31   O  BDP C   2     118.674  31.062  57.3800  0.00  0.00     0.000 O
ATOM     33  HD  BDP C   2     118.827  30.453  56.7830  0.00  0.00     0.000 HD
BRANCH 27 33
ATOM     33   C  BDP C   2     117.653  31.433  62.1760  0.00  0.00     0.000 C
ATOM     34   O  BDP C   2     116.844  31.009  63.0360  0.00  0.00     0.000 OA
ATOM     35   O  BDP C   2     118.812  31.643  62.4930  0.00  0.00     0.000 OA
ENDBRANCH 27 33
BRANCH 23 36
ATOM     36  O4  SGN C   3     116.391  34.785  59.2970  0.00  0.00     0.000 O
BRANCH 36 40
ATOM     37  C1  SGN C   3     113.423  37.682  59.7740  0.00  0.00     0.000 C
ATOM     38  C2  SGN C   3     114.125  37.164  61.0400  0.00  0.00     0.000 C
ATOM     39  C3  SGN C   3     115.433  36.475  60.6790  0.00  0.00     0.000 C
ATOM     40  C4  SGN C   3     115.145  35.370  59.6850  0.00  0.00     0.000 C
ATOM     41  C5  SGN C   3     114.436  35.964  58.4870  0.00  0.00     0.000 C
ATOM     42  O5  SGN C   3     113.208  36.580  58.9070  0.00  0.00     0.000 O
ATOM     43   O  SGN C   3     116.030  35.954  61.8600  0.00  0.00     0.000 O
ATOM     45  HD  SGN C   3     116.273  35.484  61.1740  0.00  0.00     0.000 HD
BRANCH 38 47
ATOM     45   N  SGN C   3     112.878  37.745  61.5690  0.00  0.00     0.000 N
ATOM     47  HD  SGN C   3     113.262  37.152  61.0670  0.00  0.00     0.000 HD
ATOM     47   S  SGN C   3     113.145  38.699  62.8120  0.00  0.00     0.000 S
ATOM     48   O  SGN C   3     113.633  37.971  63.9290  0.00  0.00     0.000 OA
ATOM     49   O  SGN C   3     113.962  39.769  62.3380  0.00  0.00     0.000 OA
ATOM     50   O  SGN C   3     111.794  39.155  63.1320  0.00  0.00     0.000 OA
ENDBRANCH 38 47
BRANCH 41 51
ATOM     51   C  SGN C   3     114.095  34.965  57.4160  0.00  0.00     0.000 C
ATOM     52   O  SGN C   3     112.444  31.655  57.8610  0.00  0.00     0.000 OA
ATOM     53   O  SGN C   3     112.281  33.208  56.0460  0.00  0.00     0.000 OA
ATOM     54   O  SGN C   3     114.367  32.126  56.5390  0.00  0.00     0.000 OA
ATOM     55   O  SGN C   3     113.433  33.870  58.0080  0.00  0.00     0.000 O
ATOM     56   S  SGN C   3     113.102  32.596  57.0200  0.00  0.00     0.000 S
ENDBRANCH 41 51
BRANCH 37 57
ATOM     57  O4  IDS C   4     114.112  38.630  59.0930  0.00  0.00     0.000 O
BRANCH 57 61
ATOM     58  C1  IDS C   4     114.641  42.113  57.6570  0.00  0.00     0.000 C
ATOM     59  C2  IDS C   4     114.285  41.979  59.1040  0.00  0.00     0.000 C
ATOM     60  C3  IDS C   4     113.234  40.895  59.3570  0.00  0.00     0.000 C
ATOM     61  C4  IDS C   4     113.309  39.655  58.4780  0.00  0.00     0.000 C
ATOM     62  C5  IDS C   4     113.842  40.008  57.0850  0.00  0.00     0.000 C
ATOM     63  O5  IDS C   4     114.994  40.835  57.1560  0.00  0.00     0.000 O
ATOM     64   O  IDS C   4     111.987  41.527  59.1320  0.00  0.00     0.000 O
ATOM     66  HD  IDS C   4     111.601  41.194  58.4320  0.00  0.00     0.000 HD
BRANCH 59 66
ATOM     66   O  IDS C   4     115.461  41.619  59.9200  0.00  0.00     0.000 O
ATOM     67   S  IDS C   4     116.002  42.735  60.9170  0.00  0.00     0.000 S
ATOM     68   O  IDS C   4     114.915  42.895  61.8530  0.00  0.00     0.000 OA
ATOM     69   O  IDS C   4     117.216  42.177  61.4790  0.00  0.00     0.000 OA
ATOM     70   O  IDS C   4     116.218  43.942  60.1340  0.00  0.00     0.000 OA
ENDBRANCH 59 66
BRANCH 62 71
ATOM     71   C  IDS C   4     114.262  38.790  56.2830  0.00  0.00     0.000 C
ATOM     72   O  IDS C   4     113.420  38.042  55.8250  0.00  0.00     0.000 OA
ATOM     73   O  IDS C   4     115.478  38.526  56.1980  0.00  0.00     0.000 OA
ENDBRANCH 62 71
BRANCH 58 74
ATOM     74  O4  SGN C   5     113.803  42.905  56.9300  0.00  0.00     0.000 O
BRANCH 74 78
ATOM     75  C1  SGN C   5     113.474  45.863  54.0000  0.00  0.00     0.000 C
ATOM     76  C2  SGN C   5     113.857  44.457  53.5010  0.00  0.00     0.000 C
ATOM     77  C3  SGN C   5     113.612  43.408  54.5940  0.00  0.00     0.000 C
ATOM     78  C4  SGN C   5     114.199  43.843  55.9300  0.00  0.00     0.000 C
ATOM     79  C5  SGN C   5     113.696  45.238  56.2740  0.00  0.00     0.000 C
ATOM     80  O5  SGN C   5     114.103  46.170  55.2380  0.00  0.00     0.000 O
ATOM     81   O  SGN C   5     114.178  42.169  54.1800  0.00  0.00     0.000 O
ATOM     83  HD  SGN C   5     114.155  41.913  53.3530  0.00  0.00     0.000 HD
BRANCH 76 85
ATOM     83   N  SGN C   5     113.833  45.052  52.1590  0.00  0.00     0.000 N
ATOM     85  HD  SGN C   5     113.463  45.191  51.3880  0.00  0.00     0.000 HD
ATOM     85   S  SGN C   5     113.357  44.407  50.7620  0.00  0.00     0.000 S
ATOM     86   O  SGN C   5     113.462  45.361  49.7130  0.00  0.00     0.000 OA
ATOM     87   O  SGN C   5     114.065  43.188  50.6000  0.00  0.00     0.000 OA
ATOM     88   O  SGN C   5     111.897  44.206  51.1620  0.00  0.00     0.000 OA
ENDBRANCH 76 85
BRANCH 79 89
ATOM     89   C  SGN C   5     114.207  45.752  57.6050  0.00  0.00     0.000 C
ATOM     90   O  SGN C   5     113.196  46.577  58.2320  0.00  0.00     0.000 O
ATOM     91   S  SGN C   5     113.160  46.578  59.8370  0.00  0.00     0.000 S
ATOM     92   O  SGN C   5     113.100  45.198  60.2430  0.00  0.00     0.000 OA
ATOM     93   O  SGN C   5     114.361  47.233  60.2870  0.00  0.00     0.000 OA
ATOM     94   O  SGN C   5     111.964  47.316  60.1400  0.00  0.00     0.000 OA
ENDBRANCH 79 89
BRANCH 75 95
ATOM     95  O4  BDP C   6     112.118  45.842  54.1660  0.00  0.00     0.000 O
BRANCH 95 99
ATOM     96  C1  BDP C   6     109.241  48.961  53.4980  0.00  0.00     0.000 C
ATOM     97  C2  BDP C   6     110.513  48.969  52.6970  0.00  0.00     0.000 C
ATOM     98  C3  BDP C   6     111.285  47.641  52.7210  0.00  0.00     0.000 C
ATOM     99  C4  BDP C   6     111.440  47.117  54.1410  0.00  0.00     0.000 C
ATOM    100  C5  BDP C   6     110.046  47.139  54.8130  0.00  0.00     0.000 C
ATOM    101  O5  BDP C   6     109.676  48.526  54.7730  0.00  0.00     0.000 O
BRANCH 100 102
ATOM    102   C  BDP C   6     110.091  46.711  56.2580  0.00  0.00     0.000 C
ATOM    103   O  BDP C   6     109.899  45.537  56.6070  0.00  0.00     0.000 OA
ATOM    104   O  BDP C   6     110.341  47.588  57.0930  0.00  0.00     0.000 OA
ENDBRANCH 100 102
ENDBRANCH 95 99
ENDBRANCH 75 95
ENDBRANCH 74 78
ENDBRANCH 58 74
ENDBRANCH 57 61
ENDBRANCH 37 57
ENDBRANCH 36 40
ENDBRANCH 23 36
ENDBRANCH 22 26
ENDBRANCH 1 22
TORSDOF 20
ENDMDL
MODEL 62
REMARK VINA RESULT:      -0.9     57.759     62.634
ROOT
ATOM      1  C1  NGY C   1      13.027  44.042  76.0240  0.00  0.00     0.000 C
ATOM      2  C2  NGY C   1      12.232  42.775  76.3070  0.00  0.00     0.000 C
ATOM      3  C3  NGY C   1      13.003  41.871  77.2640  0.00  0.00     0.000 C
ATOM      4  C4  NGY C   1      14.379  41.620  76.6770  0.00  0.00     0.000 C
ATOM      5  C5  NGY C   1      15.096  42.958  76.5220  0.00  0.00     0.000 C
ATOM      6  O5  NGY C   1      14.342  43.772  75.5870  0.00  0.00     0.000 O
ATOM      7   O  NGY C   1      12.276  40.666  77.4550  0.00  0.00     0.000 O
ATOM      9  HD  NGY C   1      11.779  40.139  76.9800  0.00  0.00     0.000 HD
ATOM      9   O  NGY C   1      15.136  40.754  77.5100  0.00  0.00     0.000 O
ATOM     11  HD  NGY C   1      14.639  40.227  77.0350  0.00  0.00     0.000 HD
ENDROOT
BRANCH 2 13
ATOM     11   N  NGY C   1      10.919  43.314  76.5710  0.00  0.00     0.000 N
ATOM     13  HD  NGY C   1      10.445  42.618  76.3670  0.00  0.00     0.000 HD
ATOM     13   C  NGY C   1       9.817  42.587  76.3920  0.00  0.00     0.000 C
ATOM     14   O  NGY C   1       9.866  41.476  75.8610  0.00  0.00     0.000 OA
ATOM     15   C  NGY C   1       8.534  43.175  76.8940  0.00  0.00     0.000 C
ENDBRANCH 2 13
BRANCH 5 16
ATOM     16   C  NGY C   1      16.480  42.875  75.9590  0.00  0.00     0.000 C
ATOM     17   O  NGY C   1      17.971  45.438  73.7980  0.00  0.00     0.000 OA
ATOM     18   O  NGY C   1      16.649  43.922  74.9990  0.00  0.00     0.000 O
ATOM     19   S  NGY C   1      18.136  44.278  74.6370  0.00  0.00     0.000 S
ATOM     20   O  NGY C   1      18.679  43.155  73.9190  0.00  0.00     0.000 OA
ATOM     21   O  NGY C   1      18.779  44.513  75.9200  0.00  0.00     0.000 OA
ENDBRANCH 5 16
BRANCH 1 22
ATOM     22  O4  BDP C   2      12.995  44.829  77.1200  0.00  0.00     0.000 O
BRANCH 22 26
ATOM     23  C1  BDP C   2      12.986  48.541  78.9050  0.00  0.00     0.000 C
ATOM     24  C2  BDP C   2      11.876  48.296  77.9100  0.00  0.00     0.000 C
ATOM     25  C3  BDP C   2      11.775  46.822  77.6180  0.00  0.00     0.000 C
ATOM     26  C4  BDP C   2      13.134  46.273  77.1950  0.00  0.00     0.000 C
ATOM     27  C5  BDP C   2      14.204  46.729  78.1780  0.00  0.00     0.000 C
ATOM     28  O5  BDP C   2      14.263  48.172  78.3130  0.00  0.00     0.000 O
ATOM     29   O  BDP C   2      10.590  48.623  78.4370  0.00  0.00     0.000 O
ATOM     31  HD  BDP C   2       9.931  48.119  78.1910  0.00  0.00     0.000 HD
ATOM     31   O  BDP C   2      10.837  46.673  76.5600  0.00  0.00     0.000 O
ATOM     33  HD  BDP C   2      10.178  46.168  76.3130  0.00  0.00     0.000 HD
BRANCH 27 33
ATOM     33   C  BDP C   2      15.591  46.300  77.7620  0.00  0.00     0.000 C
ATOM     34   O  BDP C   2      16.335  45.629  78.5160  0.00  0.00     0.000 OA
ATOM     35   O  BDP C   2      16.004  46.651  76.6690  0.00  0.00     0.000 OA
ENDBRANCH 27 33
BRANCH 23 36
ATOM     36  O4  SGN C   3      13.094  49.815  79.3500  0.00  0.00     0.000 O
BRANCH 36 40
ATOM     37  C1  SGN C   3      13.769  52.231  82.6870  0.00  0.00     0.000 C
ATOM     38  C2  SGN C   3      14.997  51.705  81.9250  0.00  0.00     0.000 C
ATOM     39  C3  SGN C   3      14.599  51.234  80.5350  0.00  0.00     0.000 C
ATOM     40  C4  SGN C   3      13.510  50.190  80.6660  0.00  0.00     0.000 C
ATOM     41  C5  SGN C   3      12.357  50.784  81.4440  0.00  0.00     0.000 C
ATOM     42  O5  SGN C   3      12.808  51.189  82.7460  0.00  0.00     0.000 O
ATOM     43   O  SGN C   3      15.741  50.698  79.8770  0.00  0.00     0.000 O
ATOM     45  HD  SGN C   3      15.022  50.327  79.5690  0.00  0.00     0.000 HD
BRANCH 38 47
ATOM     45   N  SGN C   3      15.562  52.054  83.2410  0.00  0.00     0.000 N
ATOM     47  HD  SGN C   3      15.018  51.566  82.7770  0.00  0.00     0.000 HD
ATOM     47   S  SGN C   3      16.878  52.936  83.1120  0.00  0.00     0.000 S
ATOM     48   O  SGN C   3      17.938  52.201  82.5170  0.00  0.00     0.000 OA
ATOM     49   O  SGN C   3      16.496  54.147  82.4630  0.00  0.00     0.000 OA
ATOM     50   O  SGN C   3      17.224  53.162  84.5140  0.00  0.00     0.000 OA
ENDBRANCH 38 47
BRANCH 41 51
ATOM     51   C  SGN C   3      11.199  49.844  81.6420  0.00  0.00     0.000 C
ATOM     52   O  SGN C   3      11.343  46.294  82.7620  0.00  0.00     0.000 OA
ATOM     53   O  SGN C   3       9.675  47.958  83.1830  0.00  0.00     0.000 OA
ATOM     54   O  SGN C   3      10.070  47.170  80.9500  0.00  0.00     0.000 OA
ATOM     55   O  SGN C   3      11.690  48.611  82.1210  0.00  0.00     0.000 O
ATOM     56   S  SGN C   3      10.590  47.395  82.2660  0.00  0.00     0.000 S
ENDBRANCH 41 51
BRANCH 37 57
ATOM     57  O4  IDS C   4      13.182  53.319  82.1300  0.00  0.00     0.000 O
BRANCH 57 61
ATOM     58  C1  IDS C   4      11.951  56.918  82.1710  0.00  0.00     0.000 C
ATOM     59  C2  IDS C   4      13.338  56.628  82.6500  0.00  0.00     0.000 C
ATOM     60  C3  IDS C   4      13.421  55.344  83.4780  0.00  0.00     0.000 C
ATOM     61  C4  IDS C   4      12.512  54.199  83.0530  0.00  0.00     0.000 C
ATOM     62  C5  IDS C   4      11.208  54.735  82.4520  0.00  0.00     0.000 C
ATOM     63  O5  IDS C   4      11.448  55.769  81.5090  0.00  0.00     0.000 O
ATOM     64   O  IDS C   4      13.070  55.726  84.7950  0.00  0.00     0.000 O
ATOM     66  HD  IDS C   4      12.317  55.366  85.0240  0.00  0.00     0.000 HD
BRANCH 59 66
ATOM     66   O  IDS C   4      14.276  56.461  81.5240  0.00  0.00     0.000 O
ATOM     67   S  IDS C   4      15.372  57.599  81.3370  0.00  0.00     0.000 S
ATOM     68   O  IDS C   4      16.175  57.481  82.5310  0.00  0.00     0.000 OA
ATOM     69   O  IDS C   4      16.056  57.261  80.1050  0.00  0.00     0.000 OA
ATOM     70   O  IDS C   4      14.667  58.871  81.2880  0.00  0.00     0.000 OA
ENDBRANCH 59 66
BRANCH 62 71
ATOM     71   C  IDS C   4      10.418  53.676  81.7060  0.00  0.00     0.000 C
ATOM     72   O  IDS C   4      10.379  53.688  80.4900  0.00  0.00     0.000 OA
ATOM     73   O  IDS C   4       9.734  52.869  82.3670  0.00  0.00     0.000 OA
ENDBRANCH 62 71
BRANCH 58 74
ATOM     74  O4  SGN C   5      11.157  57.570  83.0670  0.00  0.00     0.000 O
BRANCH 74 78
ATOM     75  C1  SGN C   5       8.061  60.319  83.6190  0.00  0.00     0.000 C
ATOM     76  C2  SGN C   5       7.639  58.905  83.1760  0.00  0.00     0.000 C
ATOM     77  C3  SGN C   5       8.800  57.916  83.3400  0.00  0.00     0.000 C
ATOM     78  C4  SGN C   5      10.091  58.463  82.7450  0.00  0.00     0.000 C
ATOM     79  C5  SGN C   5      10.363  59.849  83.3110  0.00  0.00     0.000 C
ATOM     80  O5  SGN C   5       9.261  60.733  82.9780  0.00  0.00     0.000 O
ATOM     81   O  SGN C   5       8.448  56.683  82.7210  0.00  0.00     0.000 O
ATOM     83  HD  SGN C   5       7.639  56.375  82.7500  0.00  0.00     0.000 HD
BRANCH 76 85
ATOM     83   N  SGN C   5       6.488  58.823  84.0840  0.00  0.00     0.000 N
ATOM     85  HD  SGN C   5       5.725  58.493  84.3280  0.00  0.00     0.000 HD
ATOM     85   S  SGN C   5       4.923  58.660  83.7390  0.00  0.00     0.000 S
ATOM     86   O  SGN C   5       4.157  58.578  84.9340  0.00  0.00     0.000 OA
ATOM     87   O  SGN C   5       4.585  59.691  82.8240  0.00  0.00     0.000 OA
ATOM     88   O  SGN C   5       5.041  57.287  83.0820  0.00  0.00     0.000 OA
ENDBRANCH 76 85
BRANCH 79 89
ATOM     89   C  SGN C   5      11.645  60.470  82.7950  0.00  0.00     0.000 C
ATOM     90   O  SGN C   5      11.353  61.331  81.6660  0.00  0.00     0.000 O
ATOM     91   S  SGN C   5      12.304  62.608  81.4680  0.00  0.00     0.000 S
ATOM     92   O  SGN C   5      12.316  63.306  82.7270  0.00  0.00     0.000 OA
ATOM     93   O  SGN C   5      13.606  62.112  81.1010  0.00  0.00     0.000 OA
ATOM     94   O  SGN C   5      11.658  63.340  80.4130  0.00  0.00     0.000 OA
ENDBRANCH 79 89
BRANCH 75 95
ATOM     95  O4  BDP C   6       8.265  60.241  84.9680  0.00  0.00     0.000 O
BRANCH 95 99
ATOM     96  C1  BDP C   6       7.873  63.153  88.1000  0.00  0.00     0.000 C
ATOM     97  C2  BDP C   6       6.791  63.061  87.0610  0.00  0.00     0.000 C
ATOM     98  C3  BDP C   6       6.821  61.770  86.2290  0.00  0.00     0.000 C
ATOM     99  C4  BDP C   6       8.220  61.480  85.7070  0.00  0.00     0.000 C
ATOM    100  C5  BDP C   6       9.204  61.579  86.8960  0.00  0.00     0.000 C
ATOM    101  O5  BDP C   6       9.052  62.935  87.3470  0.00  0.00     0.000 O
BRANCH 100 102
ATOM    102   C  BDP C   6      10.640  61.387  86.4810  0.00  0.00     0.000 C
ATOM    103   O  BDP C   6      11.271  62.254  85.8590  0.00  0.00     0.000 OA
ATOM    104   O  BDP C   6      11.176  60.319  86.8000  0.00  0.00     0.000 OA
ENDBRANCH 100 102
ENDBRANCH 95 99
ENDBRANCH 75 95
ENDBRANCH 74 78
ENDBRANCH 58 74
ENDBRANCH 57 61
ENDBRANCH 37 57
ENDBRANCH 36 40
ENDBRANCH 23 36
ENDBRANCH 22 26
ENDBRANCH 1 22
TORSDOF 20
ENDMDL
MODEL 63
REMARK VINA RESULT:      -0.9     56.905     61.674
ROOT
ATOM      1  C1  NGY C   1      13.214  45.416  74.1770  0.00  0.00     0.000 C
ATOM      2  C2  NGY C   1      12.419  44.148  74.4610  0.00  0.00     0.000 C
ATOM      3  C3  NGY C   1      13.190  43.245  75.4180  0.00  0.00     0.000 C
ATOM      4  C4  NGY C   1      14.566  42.994  74.8310  0.00  0.00     0.000 C
ATOM      5  C5  NGY C   1      15.283  44.331  74.6750  0.00  0.00     0.000 C
ATOM      6  O5  NGY C   1      14.529  45.146  73.7410  0.00  0.00     0.000 O
ATOM      7   O  NGY C   1      12.463  42.039  75.6090  0.00  0.00     0.000 O
ATOM      9  HD  NGY C   1      11.966  41.513  75.1340  0.00  0.00     0.000 HD
ATOM      9   O  NGY C   1      15.323  42.127  75.6630  0.00  0.00     0.000 O
ATOM     11  HD  NGY C   1      14.827  41.601  75.1880  0.00  0.00     0.000 HD
ENDROOT
BRANCH 2 13
ATOM     11   N  NGY C   1      11.106  44.687  74.7240  0.00  0.00     0.000 N
ATOM     13  HD  NGY C   1      10.632  43.992  74.5210  0.00  0.00     0.000 HD
ATOM     13   C  NGY C   1      10.004  43.960  74.5460  0.00  0.00     0.000 C
ATOM     14   O  NGY C   1      10.053  42.850  74.0140  0.00  0.00     0.000 OA
ATOM     15   C  NGY C   1       8.721  44.549  75.0480  0.00  0.00     0.000 C
ENDBRANCH 2 13
BRANCH 5 16
ATOM     16   C  NGY C   1      16.667  44.249  74.1130  0.00  0.00     0.000 C
ATOM     17   O  NGY C   1      18.158  46.811  71.9520  0.00  0.00     0.000 OA
ATOM     18   O  NGY C   1      16.836  45.295  73.1530  0.00  0.00     0.000 O
ATOM     19   S  NGY C   1      18.323  45.651  72.7910  0.00  0.00     0.000 S
ATOM     20   O  NGY C   1      18.867  44.528  72.0730  0.00  0.00     0.000 OA
ATOM     21   O  NGY C   1      18.966  45.887  74.0740  0.00  0.00     0.000 OA
ENDBRANCH 5 16
BRANCH 1 22
ATOM     22  O4  BDP C   2      13.182  46.203  75.2740  0.00  0.00     0.000 O
BRANCH 22 26
ATOM     23  C1  BDP C   2      13.173  49.915  77.0590  0.00  0.00     0.000 C
ATOM     24  C2  BDP C   2      12.063  49.669  76.0640  0.00  0.00     0.000 C
ATOM     25  C3  BDP C   2      11.963  48.195  75.7720  0.00  0.00     0.000 C
ATOM     26  C4  BDP C   2      13.321  47.646  75.3490  0.00  0.00     0.000 C
ATOM     27  C5  BDP C   2      14.392  48.102  76.3320  0.00  0.00     0.000 C
ATOM     28  O5  BDP C   2      14.450  49.546  76.4660  0.00  0.00     0.000 O
ATOM     29   O  BDP C   2      10.777  49.997  76.5910  0.00  0.00     0.000 O
ATOM     31  HD  BDP C   2      10.118  49.493  76.3440  0.00  0.00     0.000 HD
ATOM     31   O  BDP C   2      11.024  48.046  74.7140  0.00  0.00     0.000 O
ATOM     33  HD  BDP C   2      10.365  47.542  74.4670  0.00  0.00     0.000 HD
BRANCH 27 33
ATOM     33   C  BDP C   2      15.778  47.673  75.9150  0.00  0.00     0.000 C
ATOM     34   O  BDP C   2      16.522  47.002  76.6700  0.00  0.00     0.000 OA
ATOM     35   O  BDP C   2      16.191  48.024  74.8220  0.00  0.00     0.000 OA
ENDBRANCH 27 33
BRANCH 23 36
ATOM     36  O4  SGN C   3      13.281  51.188  77.5040  0.00  0.00     0.000 O
BRANCH 36 40
ATOM     37  C1  SGN C   3      13.956  53.605  80.8400  0.00  0.00     0.000 C
ATOM     38  C2  SGN C   3      15.184  53.079  80.0790  0.00  0.00     0.000 C
ATOM     39  C3  SGN C   3      14.786  52.607  78.6880  0.00  0.00     0.000 C
ATOM     40  C4  SGN C   3      13.697  51.564  78.8190  0.00  0.00     0.000 C
ATOM     41  C5  SGN C   3      12.544  52.157  79.5980  0.00  0.00     0.000 C
ATOM     42  O5  SGN C   3      12.995  52.563  80.9000  0.00  0.00     0.000 O
ATOM     43   O  SGN C   3      15.928  52.072  78.0300  0.00  0.00     0.000 O
ATOM     45  HD  SGN C   3      15.209  51.700  77.7230  0.00  0.00     0.000 HD
BRANCH 38 47
ATOM     45   N  SGN C   3      15.749  53.427  81.3950  0.00  0.00     0.000 N
ATOM     47  HD  SGN C   3      15.205  52.939  80.9310  0.00  0.00     0.000 HD
ATOM     47   S  SGN C   3      17.065  54.309  81.2650  0.00  0.00     0.000 S
ATOM     48   O  SGN C   3      18.125  53.574  80.6710  0.00  0.00     0.000 OA
ATOM     49   O  SGN C   3      16.683  55.521  80.6160  0.00  0.00     0.000 OA
ATOM     50   O  SGN C   3      17.411  54.535  82.6680  0.00  0.00     0.000 OA
ENDBRANCH 38 47
BRANCH 41 51
ATOM     51   C  SGN C   3      11.386  51.217  79.7950  0.00  0.00     0.000 C
ATOM     52   O  SGN C   3      11.530  47.667  80.9160  0.00  0.00     0.000 OA
ATOM     53   O  SGN C   3       9.862  49.332  81.3370  0.00  0.00     0.000 OA
ATOM     54   O  SGN C   3      10.258  48.544  79.1030  0.00  0.00     0.000 OA
ATOM     55   O  SGN C   3      11.877  49.985  80.2740  0.00  0.00     0.000 O
ATOM     56   S  SGN C   3      10.778  48.769  80.4200  0.00  0.00     0.000 S
ENDBRANCH 41 51
BRANCH 37 57
ATOM     57  O4  IDS C   4      13.369  54.692  80.2830  0.00  0.00     0.000 O
BRANCH 57 61
ATOM     58  C1  IDS C   4      12.138  58.291  80.3240  0.00  0.00     0.000 C
ATOM     59  C2  IDS C   4      13.525  58.001  80.8030  0.00  0.00     0.000 C
ATOM     60  C3  IDS C   4      13.608  56.717  81.6320  0.00  0.00     0.000 C
ATOM     61  C4  IDS C   4      12.699  55.572  81.2070  0.00  0.00     0.000 C
ATOM     62  C5  IDS C   4      11.395  56.108  80.6060  0.00  0.00     0.000 C
ATOM     63  O5  IDS C   4      11.635  57.143  79.6630  0.00  0.00     0.000 O
ATOM     64   O  IDS C   4      13.257  57.100  82.9480  0.00  0.00     0.000 O
ATOM     66  HD  IDS C   4      12.504  56.740  83.1780  0.00  0.00     0.000 HD
BRANCH 59 66
ATOM     66   O  IDS C   4      14.463  57.834  79.6770  0.00  0.00     0.000 O
ATOM     67   S  IDS C   4      15.559  58.973  79.4910  0.00  0.00     0.000 S
ATOM     68   O  IDS C   4      16.362  58.855  80.6840  0.00  0.00     0.000 OA
ATOM     69   O  IDS C   4      16.243  58.634  78.2580  0.00  0.00     0.000 OA
ATOM     70   O  IDS C   4      14.854  60.245  79.4420  0.00  0.00     0.000 OA
ENDBRANCH 59 66
BRANCH 62 71
ATOM     71   C  IDS C   4      10.605  55.050  79.8590  0.00  0.00     0.000 C
ATOM     72   O  IDS C   4      10.566  55.062  78.6440  0.00  0.00     0.000 OA
ATOM     73   O  IDS C   4       9.922  54.243  80.5200  0.00  0.00     0.000 OA
ENDBRANCH 62 71
BRANCH 58 74
ATOM     74  O4  SGN C   5      11.344  58.944  81.2210  0.00  0.00     0.000 O
BRANCH 74 78
ATOM     75  C1  SGN C   5       8.248  61.692  81.7730  0.00  0.00     0.000 C
ATOM     76  C2  SGN C   5       7.826  60.279  81.3300  0.00  0.00     0.000 C
ATOM     77  C3  SGN C   5       8.988  59.289  81.4940  0.00  0.00     0.000 C
ATOM     78  C4  SGN C   5      10.278  59.836  80.8990  0.00  0.00     0.000 C
ATOM     79  C5  SGN C   5      10.550  61.222  81.4640  0.00  0.00     0.000 C
ATOM     80  O5  SGN C   5       9.448  62.107  81.1320  0.00  0.00     0.000 O
ATOM     81   O  SGN C   5       8.635  58.057  80.8740  0.00  0.00     0.000 O
ATOM     83  HD  SGN C   5       7.826  57.749  80.9040  0.00  0.00     0.000 HD
BRANCH 76 85
ATOM     83   N  SGN C   5       6.675  60.197  82.2380  0.00  0.00     0.000 N
ATOM     85  HD  SGN C   5       5.913  59.866  82.4810  0.00  0.00     0.000 HD
ATOM     85   S  SGN C   5       5.110  60.033  81.8930  0.00  0.00     0.000 S
ATOM     86   O  SGN C   5       4.344  59.952  83.0880  0.00  0.00     0.000 OA
ATOM     87   O  SGN C   5       4.773  61.064  80.9780  0.00  0.00     0.000 OA
ATOM     88   O  SGN C   5       5.228  58.660  81.2350  0.00  0.00     0.000 OA
ENDBRANCH 76 85
BRANCH 79 89
ATOM     89   C  SGN C   5      11.832  61.844  80.9480  0.00  0.00     0.000 C
ATOM     90   O  SGN C   5      11.540  62.704  79.8200  0.00  0.00     0.000 O
ATOM     91   S  SGN C   5      12.492  63.981  79.6210  0.00  0.00     0.000 S
ATOM     92   O  SGN C   5      12.503  64.679  80.8800  0.00  0.00     0.000 OA
ATOM     93   O  SGN C   5      13.793  63.486  79.2550  0.00  0.00     0.000 OA
ATOM     94   O  SGN C   5      11.845  64.714  78.5670  0.00  0.00     0.000 OA
ENDBRANCH 79 89
BRANCH 75 95
ATOM     95  O4  BDP C   6       8.453  61.614  83.1220  0.00  0.00     0.000 O
BRANCH 95 99
ATOM     96  C1  BDP C   6       8.060  64.526  86.2540  0.00  0.00     0.000 C
ATOM     97  C2  BDP C   6       6.978  64.434  85.2150  0.00  0.00     0.000 C
ATOM     98  C3  BDP C   6       7.008  63.143  84.3830  0.00  0.00     0.000 C
ATOM     99  C4  BDP C   6       8.407  62.854  83.8600  0.00  0.00     0.000 C
ATOM    100  C5  BDP C   6       9.391  62.953  85.0500  0.00  0.00     0.000 C
ATOM    101  O5  BDP C   6       9.239  64.309  85.5010  0.00  0.00     0.000 O
BRANCH 100 102
ATOM    102   C  BDP C   6      10.827  62.760  84.6340  0.00  0.00     0.000 C
ATOM    103   O  BDP C   6      11.459  63.627  84.0130  0.00  0.00     0.000 OA
ATOM    104   O  BDP C   6      11.363  61.692  84.9530  0.00  0.00     0.000 OA
ENDBRANCH 100 102
ENDBRANCH 95 99
ENDBRANCH 75 95
ENDBRANCH 74 78
ENDBRANCH 58 74
ENDBRANCH 57 61
ENDBRANCH 37 57
ENDBRANCH 36 40
ENDBRANCH 23 36
ENDBRANCH 22 26
ENDBRANCH 1 22
TORSDOF 20
ENDMDL
MODEL 64
REMARK VINA RESULT:      -0.9     73.609     79.216
ROOT
ATOM      1  C1  NGY C   1      98.348  38.185  49.9630  0.00  0.00     0.000 C
ATOM      2  C2  NGY C   1      99.560  38.595  50.7880  0.00  0.00     0.000 C
ATOM      3  C3  NGY C   1      99.148  38.875  52.2300  0.00  0.00     0.000 C
ATOM      4  C4  NGY C   1      98.033  39.904  52.2150  0.00  0.00     0.000 C
ATOM      5  C5  NGY C   1      96.854  39.337  51.4290  0.00  0.00     0.000 C
ATOM      6  O5  NGY C   1      97.286  39.110  50.0620  0.00  0.00     0.000 O
ATOM      7   O  NGY C   1     100.280  39.325  52.9600  0.00  0.00     0.000 O
ATOM      9  HD  NGY C   1     100.979  39.815  52.8140  0.00  0.00     0.000 HD
ATOM      9   O  NGY C   1      97.627  40.233  53.5350  0.00  0.00     0.000 O
ATOM     11  HD  NGY C   1      98.326  40.723  53.3890  0.00  0.00     0.000 HD
ENDROOT
BRANCH 2 13
ATOM     11   N  NGY C   1     100.989  38.800  50.7940  0.00  0.00     0.000 N
ATOM     13  HD  NGY C   1     101.239  38.008  50.5480  0.00  0.00     0.000 HD
ATOM     13   C  NGY C   1     101.836  37.823  50.4720  0.00  0.00     0.000 C
ATOM     14   O  NGY C   1     101.440  36.669  50.2980  0.00  0.00     0.000 OA
ATOM     15   C  NGY C   1     103.275  38.207  50.3100  0.00  0.00     0.000 C
ENDBRANCH 2 13
BRANCH 5 16
ATOM     16   C  NGY C   1      95.664  40.237  51.3320  0.00  0.00     0.000 C
ATOM     17   O  NGY C   1      93.346  40.272  48.4890  0.00  0.00     0.000 OA
ATOM     18   O  NGY C   1      95.119  40.139  50.0130  0.00  0.00     0.000 O
ATOM     19   S  NGY C   1      93.641  40.645  49.8490  0.00  0.00     0.000 S
ATOM     20   O  NGY C   1      93.656  42.072  50.0350  0.00  0.00     0.000 OA
ATOM     21   O  NGY C   1      92.894  39.934  50.8740  0.00  0.00     0.000 OA
ENDBRANCH 5 16
BRANCH 1 22
ATOM     22  O4  BDP C   2      97.983  36.935  50.3190  0.00  0.00     0.000 O
BRANCH 22 26
ATOM     23  C1  BDP C   2      96.304  33.271  49.4710  0.00  0.00     0.000 C
ATOM     24  C2  BDP C   2      97.577  33.592  48.7230  0.00  0.00     0.000 C
ATOM     25  C3  BDP C   2      98.268  34.759  49.3780  0.00  0.00     0.000 C
ATOM     26  C4  BDP C   2      97.305  35.933  49.5160  0.00  0.00     0.000 C
ATOM     27  C5  BDP C   2      95.992  35.456  50.1230  0.00  0.00     0.000 C
ATOM     28  O5  BDP C   2      95.377  34.387  49.3580  0.00  0.00     0.000 O
ATOM     29   O  BDP C   2      98.538  32.540  48.8080  0.00  0.00     0.000 O
ATOM     31  HD  BDP C   2      99.370  32.778  48.8530  0.00  0.00     0.000 HD
ATOM     31   O  BDP C   2      99.359  35.117  48.5390  0.00  0.00     0.000 O
ATOM     33  HD  BDP C   2     100.190  35.355  48.5830  0.00  0.00     0.000 HD
BRANCH 27 33
ATOM     33   C  BDP C   2      94.957  36.554  50.1970  0.00  0.00     0.000 C
ATOM     34   O  BDP C   2      94.415  36.885  51.2780  0.00  0.00     0.000 OA
ATOM     35   O  BDP C   2      94.621  37.105  49.1620  0.00  0.00     0.000 OA
ENDBRANCH 27 33
BRANCH 23 36
ATOM     36  O4  SGN C   3      95.655  32.157  49.0590  0.00  0.00     0.000 O
BRANCH 36 40
ATOM     37  C1  SGN C   3      93.633  28.717  50.2870  0.00  0.00     0.000 C
ATOM     38  C2  SGN C   3      92.827  30.022  50.1880  0.00  0.00     0.000 C
ATOM     39  C3  SGN C   3      93.567  31.041  49.3340  0.00  0.00     0.000 C
ATOM     40  C4  SGN C   3      94.947  31.257  49.9160  0.00  0.00     0.000 C
ATOM     41  C5  SGN C   3      95.656  29.924  49.9980  0.00  0.00     0.000 C
ATOM     42  O5  SGN C   3      94.907  29.026  50.8310  0.00  0.00     0.000 O
ATOM     43   O  SGN C   3      92.828  32.256  49.3090  0.00  0.00     0.000 O
ATOM     45  HD  SGN C   3      93.671  32.421  49.1930  0.00  0.00     0.000 HD
BRANCH 38 47
ATOM     45   N  SGN C   3      91.993  29.206  51.0880  0.00  0.00     0.000 N
ATOM     47  HD  SGN C   3      92.743  29.614  50.9440  0.00  0.00     0.000 HD
ATOM     47   S  SGN C   3      90.470  29.182  50.6320  0.00  0.00     0.000 S
ATOM     48   O  SGN C   3      89.873  30.465  50.7530  0.00  0.00     0.000 OA
ATOM     49   O  SGN C   3      90.440  28.581  49.3390  0.00  0.00     0.000 OA
ATOM     50   O  SGN C   3      89.871  28.314  51.6440  0.00  0.00     0.000 OA
ENDBRANCH 38 47
BRANCH 41 51
ATOM     51   C  SGN C   3      97.050  30.001  50.5600  0.00  0.00     0.000 C
ATOM     52   O  SGN C   3      98.126  31.702  53.6950  0.00  0.00     0.000 OA
ATOM     53   O  SGN C   3      98.970  29.706  52.6760  0.00  0.00     0.000 OA
ATOM     54   O  SGN C   3      99.186  31.824  51.5660  0.00  0.00     0.000 OA
ATOM     55   O  SGN C   3      97.008  30.694  51.7870  0.00  0.00     0.000 O
ATOM     56   S  SGN C   3      98.459  31.011  52.4960  0.00  0.00     0.000 S
ENDBRANCH 41 51
BRANCH 37 57
ATOM     57  O4  IDS C   4      93.820  28.077  49.1060  0.00  0.00     0.000 O
BRANCH 57 61
ATOM     58  C1  IDS C   4      93.431  25.151  46.7070  0.00  0.00     0.000 C
ATOM     59  C2  IDS C   4      92.212  25.692  47.3830  0.00  0.00     0.000 C
ATOM     60  C3  IDS C   4      92.462  26.061  48.8480  0.00  0.00     0.000 C
ATOM     61  C4  IDS C   4      93.831  26.638  49.1800  0.00  0.00     0.000 C
ATOM     62  C5  IDS C   4      94.907  26.051  48.2590  0.00  0.00     0.000 C
ATOM     63  O5  IDS C   4      94.500  26.063  46.8980  0.00  0.00     0.000 O
ATOM     64   O  IDS C   4      92.301  24.854  49.5690  0.00  0.00     0.000 O
ATOM     66  HD  IDS C   4      93.057  24.599  49.9060  0.00  0.00     0.000 HD
BRANCH 59 66
ATOM     66   O  IDS C   4      91.722  26.916  46.7220  0.00  0.00     0.000 O
ATOM     67   S  IDS C   4      90.368  26.784  45.8950  0.00  0.00     0.000 S
ATOM     68   O  IDS C   4      89.391  26.477  46.9120  0.00  0.00     0.000 OA
ATOM     69   O  IDS C   4      90.196  28.072  45.2530  0.00  0.00     0.000 OA
ATOM     70   O  IDS C   4      90.539  25.680  44.9640  0.00  0.00     0.000 OA
ENDBRANCH 59 66
BRANCH 62 71
ATOM     71   C  IDS C   4      96.212  26.822  48.3020  0.00  0.00     0.000 C
ATOM     72   O  IDS C   4      96.526  27.543  47.3740  0.00  0.00     0.000 OA
ATOM     73   O  IDS C   4      96.992  26.618  49.2540  0.00  0.00     0.000 OA
ENDBRANCH 62 71
BRANCH 58 74
ATOM     74  O4  SGN C   5      93.650  23.819  46.8950  0.00  0.00     0.000 O
BRANCH 74 78
ATOM     75  C1  SGN C   5      94.926  20.223  45.1950  0.00  0.00     0.000 C
ATOM     76  C2  SGN C   5      96.021  21.276  45.4490  0.00  0.00     0.000 C
ATOM     77  C3  SGN C   5      95.501  22.387  46.3720  0.00  0.00     0.000 C
ATOM     78  C4  SGN C   5      94.145  22.907  45.9140  0.00  0.00     0.000 C
ATOM     79  C5  SGN C   5      93.187  21.738  45.7380  0.00  0.00     0.000 C
ATOM     80  O5  SGN C   5      93.717  20.821  44.7450  0.00  0.00     0.000 O
ATOM     81   O  SGN C   5      96.456  23.443  46.4050  0.00  0.00     0.000 O
ATOM     83  HD  SGN C   5      97.307  23.287  46.3910  0.00  0.00     0.000 HD
BRANCH 76 85
ATOM     83   N  SGN C   5      96.888  20.142  45.1050  0.00  0.00     0.000 N
ATOM     85  HD  SGN C   5      97.522  19.581  45.2830  0.00  0.00     0.000 HD
ATOM     85   S  SGN C   5      98.461  19.937  45.3810  0.00  0.00     0.000 S
ATOM     86   O  SGN C   5      98.885  18.662  44.9160  0.00  0.00     0.000 OA
ATOM     87   O  SGN C   5      99.130  21.072  44.8540  0.00  0.00     0.000 OA
ATOM     88   O  SGN C   5      98.365  19.949  46.9050  0.00  0.00     0.000 OA
ENDBRANCH 76 85
BRANCH 79 89
ATOM     89   C  SGN C   5      91.797  22.157  45.3060  0.00  0.00     0.000 C
ATOM     90   O  SGN C   5      91.621  21.887  43.8940  0.00  0.00     0.000 O
ATOM     91   S  SGN C   5      90.136  21.513  43.4110  0.00  0.00     0.000 S
ATOM     92   O  SGN C   5      89.693  20.435  44.2550  0.00  0.00     0.000 OA
ATOM     93   O  SGN C   5      89.331  22.698  43.5620  0.00  0.00     0.000 OA
ATOM     94   O  SGN C   5      90.323  21.126  42.0390  0.00  0.00     0.000 OA
ENDBRANCH 79 89
BRANCH 75 95
ATOM     95  O4  BDP C   6      94.714  19.609  46.3960  0.00  0.00     0.000 O
BRANCH 95 99
ATOM     96  C1  BDP C   6      93.262  15.676  47.3310  0.00  0.00     0.000 C
ATOM     97  C2  BDP C   6      94.164  15.848  46.1420  0.00  0.00     0.000 C
ATOM     98  C3  BDP C   6      94.926  17.182  46.1120  0.00  0.00     0.000 C
ATOM     99  C4  BDP C   6      93.995  18.357  46.3700  0.00  0.00     0.000 C
ATOM    100  C5  BDP C   6      93.167  18.041  47.6380  0.00  0.00     0.000 C
ATOM    101  O5  BDP C   6      92.459  16.841  47.2870  0.00  0.00     0.000 O
BRANCH 100 102
ATOM    102   C  BDP C   6      92.148  19.108  47.9470  0.00  0.00     0.000 C
ATOM    103   O  BDP C   6      91.177  19.331  47.2090  0.00  0.00     0.000 OA
ATOM    104   O  BDP C   6      92.314  19.754  48.9890  0.00  0.00     0.000 OA
ENDBRANCH 100 102
ENDBRANCH 95 99
ENDBRANCH 75 95
ENDBRANCH 74 78
ENDBRANCH 58 74
ENDBRANCH 57 61
ENDBRANCH 37 57
ENDBRANCH 36 40
ENDBRANCH 23 36
ENDBRANCH 22 26
ENDBRANCH 1 22
TORSDOF 20
ENDMDL
MODEL 65
REMARK VINA RESULT:      -0.8     74.027     81.484
ROOT
ATOM      1  C1  NGY C   1      87.121  33.275  62.5010  0.00  0.00     0.000 C
ATOM      2  C2  NGY C   1      86.587  34.075  61.3210  0.00  0.00     0.000 C
ATOM      3  C3  NGY C   1      87.571  35.178  60.9420  0.00  0.00     0.000 C
ATOM      4  C4  NGY C   1      87.850  36.011  62.1780  0.00  0.00     0.000 C
ATOM      5  C5  NGY C   1      88.456  35.109  63.2500  0.00  0.00     0.000 C
ATOM      6  O5  NGY C   1      87.478  34.093  63.5940  0.00  0.00     0.000 O
ATOM      7   O  NGY C   1      87.018  35.954  59.8880  0.00  0.00     0.000 O
ATOM      9  HD  NGY C   1      86.236  36.241  59.6510  0.00  0.00     0.000 HD
ATOM      9   O  NGY C   1      88.737  37.080  61.8810  0.00  0.00     0.000 O
ATOM     11  HD  NGY C   1      87.955  37.367  61.6430  0.00  0.00     0.000 HD
ENDROOT
BRANCH 2 13
ATOM     11   N  NGY C   1      86.204  33.042  60.3870  0.00  0.00     0.000 N
ATOM     13  HD  NGY C   1      85.561  33.459  59.9820  0.00  0.00     0.000 HD
ATOM     13   C  NGY C   1      85.212  33.222  59.5160  0.00  0.00     0.000 C
ATOM     14   O  NGY C   1      84.490  34.219  59.5700  0.00  0.00     0.000 OA
ATOM     15   C  NGY C   1      85.042  32.169  58.4630  0.00  0.00     0.000 C
ENDBRANCH 2 13
BRANCH 5 16
ATOM     16   C  NGY C   1      88.798  35.792  64.5350  0.00  0.00     0.000 C
ATOM     17   O  NGY C   1      92.165  36.963  65.4010  0.00  0.00     0.000 OA
ATOM     18   O  NGY C   1      90.220  35.911  64.6280  0.00  0.00     0.000 O
ATOM     19   S  NGY C   1      90.748  36.974  65.6580  0.00  0.00     0.000 S
ATOM     20   O  NGY C   1      90.426  36.486  66.9740  0.00  0.00     0.000 OA
ATOM     21   O  NGY C   1      90.052  38.201  65.3080  0.00  0.00     0.000 OA
ENDBRANCH 5 16
BRANCH 1 22
ATOM     22  O4  BDP C   2      88.143  32.502  62.0750  0.00  0.00     0.000 O
BRANCH 22 26
ATOM     23  C1  BDP C   2      90.358  29.034  62.2450  0.00  0.00     0.000 C
ATOM     24  C2  BDP C   2      88.873  28.847  62.0390  0.00  0.00     0.000 C
ATOM     25  C3  BDP C   2      88.251  30.157  61.6340  0.00  0.00     0.000 C
ATOM     26  C4  BDP C   2      88.616  31.248  62.6350  0.00  0.00     0.000 C
ATOM     27  C5  BDP C   2      90.116  31.228  62.8970  0.00  0.00     0.000 C
ATOM     28  O5  BDP C   2      90.586  29.937  63.3630  0.00  0.00     0.000 O
ATOM     29   O  BDP C   2      88.581  27.981  60.9430  0.00  0.00     0.000 O
ATOM     31  HD  BDP C   2      87.880  28.175  60.4720  0.00  0.00     0.000 HD
ATOM     31   O  BDP C   2      86.842  29.958  61.6200  0.00  0.00     0.000 O
ATOM     33  HD  BDP C   2      86.142  30.153  61.1490  0.00  0.00     0.000 HD
BRANCH 27 33
ATOM     33   C  BDP C   2      90.531  32.222  63.9550  0.00  0.00     0.000 C
ATOM     34   O  BDP C   2      89.920  32.328  65.0450  0.00  0.00     0.000 OA
ATOM     35   O  BDP C   2      91.469  32.965  63.7180  0.00  0.00     0.000 OA
ENDBRANCH 27 33
BRANCH 23 36
ATOM     36  O4  SGN C   3      91.057  27.900  62.4860  0.00  0.00     0.000 O
BRANCH 36 40
ATOM     37  C1  SGN C   3      94.574  25.797  61.6890  0.00  0.00     0.000 C
ATOM     38  C2  SGN C   3      94.623  26.886  62.7740  0.00  0.00     0.000 C
ATOM     39  C3  SGN C   3      93.218  27.234  63.2410  0.00  0.00     0.000 C
ATOM     40  C4  SGN C   3      92.393  27.651  62.0420  0.00  0.00     0.000 C
ATOM     41  C5  SGN C   3      92.420  26.535  61.0210  0.00  0.00     0.000 C
ATOM     42  O5  SGN C   3      93.774  26.277  60.6200  0.00  0.00     0.000 O
ATOM     43   O  SGN C   3      93.289  28.283  64.1990  0.00  0.00     0.000 O
ATOM     45  HD  SGN C   3      92.526  28.309  63.7900  0.00  0.00     0.000 HD
BRANCH 38 47
ATOM     45   N  SGN C   3      96.044  26.732  62.4150  0.00  0.00     0.000 N
ATOM     47  HD  SGN C   3      95.242  26.953  62.1760  0.00  0.00     0.000 HD
ATOM     47   S  SGN C   3      96.968  26.559  63.6960  0.00  0.00     0.000 S
ATOM     48   O  SGN C   3      96.986  27.738  64.4860  0.00  0.00     0.000 OA
ATOM     49   O  SGN C   3      96.547  25.360  64.3440  0.00  0.00     0.000 OA
ATOM     50   O  SGN C   3      98.290  26.408  63.0910  0.00  0.00     0.000 OA
ENDBRANCH 38 47
BRANCH 41 51
ATOM     51   C  SGN C   3      91.628  26.823  59.7740  0.00  0.00     0.000 C
ATOM     52   O  SGN C   3      91.719  29.924  57.7120  0.00  0.00     0.000 OA
ATOM     53   O  SGN C   3      91.393  27.652  57.0330  0.00  0.00     0.000 OA
ATOM     54   O  SGN C   3      89.781  28.746  58.4360  0.00  0.00     0.000 OA
ATOM     55   O  SGN C   3      92.000  28.091  59.2810  0.00  0.00     0.000 O
ATOM     56   S  SGN C   3      91.141  28.655  57.9960  0.00  0.00     0.000 S
ENDBRANCH 41 51
BRANCH 37 57
ATOM     57  O4  IDS C   4      94.064  24.611  62.1010  0.00  0.00     0.000 O
BRANCH 57 61
ATOM     58  C1  IDS C   4      94.228  20.871  62.7760  0.00  0.00     0.000 C
ATOM     59  C2  IDS C   4      95.317  21.746  63.3120  0.00  0.00     0.000 C
ATOM     60  C3  IDS C   4      95.735  22.840  62.3280  0.00  0.00     0.000 C
ATOM     61  C4  IDS C   4      94.630  23.445  61.4720  0.00  0.00     0.000 C
ATOM     62  C5  IDS C   4      93.545  22.404  61.1700  0.00  0.00     0.000 C
ATOM     63  O5  IDS C   4      93.160  21.692  62.3370  0.00  0.00     0.000 O
ATOM     64   O  IDS C   4      96.679  22.228  61.4690  0.00  0.00     0.000 O
ATOM     66  HD  IDS C   4      96.362  22.165  60.6660  0.00  0.00     0.000 HD
BRANCH 59 66
ATOM     66   O  IDS C   4      94.900  22.433  64.5500  0.00  0.00     0.000 O
ATOM     67   S  IDS C   4      95.628  21.983  65.8920  0.00  0.00     0.000 S
ATOM     68   O  IDS C   4      96.998  22.380  65.6710  0.00  0.00     0.000 OA
ATOM     69   O  IDS C   4      94.945  22.706  66.9470  0.00  0.00     0.000 OA
ATOM     70   O  IDS C   4      95.497  20.538  65.9890  0.00  0.00     0.000 OA
ENDBRANCH 59 66
BRANCH 62 71
ATOM     71   C  IDS C   4      92.269  23.016  60.6240  0.00  0.00     0.000 C
ATOM     72   O  IDS C   4      91.272  23.068  61.3180  0.00  0.00     0.000 OA
ATOM     73   O  IDS C   4      92.242  23.363  59.4270  0.00  0.00     0.000 OA
ENDBRANCH 62 71
BRANCH 58 74
ATOM     74  O4  SGN C   5      94.652  19.847  61.9820  0.00  0.00     0.000 O
BRANCH 74 78
ATOM     75  C1  SGN C   5      94.260  15.806  61.0020  0.00  0.00     0.000 C
ATOM     76  C2  SGN C   5      93.122  16.730  60.5270  0.00  0.00     0.000 C
ATOM     77  C3  SGN C   5      93.538  18.203  60.6390  0.00  0.00     0.000 C
ATOM     78  C4  SGN C   5      94.147  18.512  61.9990  0.00  0.00     0.000 C
ATOM     79  C5  SGN C   5      95.265  17.521  62.2910  0.00  0.00     0.000 C
ATOM     80  O5  SGN C   5      94.728  16.172  62.2930  0.00  0.00     0.000 O
ATOM     81   O  SGN C   5      92.398  19.023  60.4040  0.00  0.00     0.000 O
ATOM     83  HD  SGN C   5      91.797  18.809  59.8180  0.00  0.00     0.000 HD
BRANCH 76 85
ATOM     83   N  SGN C   5      92.657  15.511  59.8530  0.00  0.00     0.000 N
ATOM     85  HD  SGN C   5      92.486  15.045  59.1440  0.00  0.00     0.000 HD
ATOM     85   S  SGN C   5      91.742  15.356  58.5370  0.00  0.00     0.000 S
ATOM     86   O  SGN C   5      91.574  13.983  58.2080  0.00  0.00     0.000 OA
ATOM     87   O  SGN C   5      90.565  16.118  58.7520  0.00  0.00     0.000 OA
ATOM     88   O  SGN C   5      92.723  16.023  57.5750  0.00  0.00     0.000 OA
ENDBRANCH 76 85
BRANCH 79 89
ATOM     89   C  SGN C   5      95.954  17.762  63.6190  0.00  0.00     0.000 C
ATOM     90   O  SGN C   5      97.351  17.393  63.5200  0.00  0.00     0.000 O
ATOM     91   S  SGN C   5      98.382  18.222  64.4290  0.00  0.00     0.000 S
ATOM     92   O  SGN C   5      98.141  19.614  64.1500  0.00  0.00     0.000 OA
ATOM     93   O  SGN C   5      98.108  17.879  65.8000  0.00  0.00     0.000 OA
ATOM     94   O  SGN C   5      99.666  17.762  63.9750  0.00  0.00     0.000 OA
ENDBRANCH 79 89
BRANCH 75 95
ATOM     95  O4  BDP C   6      95.265  15.955  60.0900  0.00  0.00     0.000 O
BRANCH 95 99
ATOM     96  C1  BDP C   6      98.058  12.928  58.8700  0.00  0.00     0.000 C
ATOM     97  C2  BDP C   6      96.851  12.518  59.6650  0.00  0.00     0.000 C
ATOM     98  C3  BDP C   6      95.739  13.576  59.7220  0.00  0.00     0.000 C
ATOM     99  C4  BDP C   6      96.297  14.944  60.0860  0.00  0.00     0.000 C
ATOM    100  C5  BDP C   6      97.503  15.231  59.1610  0.00  0.00     0.000 C
ATOM    101  O5  BDP C   6      98.417  14.164  59.4590  0.00  0.00     0.000 O
BRANCH 100 102
ATOM    102   C  BDP C   6      98.188  16.534  59.4850  0.00  0.00     0.000 C
ATOM    103   O  BDP C   6      98.235  17.475  58.6800  0.00  0.00     0.000 OA
ATOM    104   O  BDP C   6      98.697  16.634  60.6070  0.00  0.00     0.000 OA
ENDBRANCH 100 102
ENDBRANCH 95 99
ENDBRANCH 75 95
ENDBRANCH 74 78
ENDBRANCH 58 74
ENDBRANCH 57 61
ENDBRANCH 37 57
ENDBRANCH 36 40
ENDBRANCH 23 36
ENDBRANCH 22 26
ENDBRANCH 1 22
TORSDOF 20
ENDMDL
MODEL 66
REMARK VINA RESULT:      -0.8     29.786     41.422
ROOT
ATOM      1  C1  NGY C   1      37.239   8.950  68.4610  0.00  0.00     0.000 C
ATOM      2  C2  NGY C   1      38.385   9.919  68.7180  0.00  0.00     0.000 C
ATOM      3  C3  NGY C   1      39.712   9.288  68.3080  0.00  0.00     0.000 C
ATOM      4  C4  NGY C   1      39.851   7.962  69.0310  0.00  0.00     0.000 C
ATOM      5  C5  NGY C   1      38.689   7.059  68.6240  0.00  0.00     0.000 C
ATOM      6  O5  NGY C   1      37.453   7.687  69.0540  0.00  0.00     0.000 O
ATOM      7   O  NGY C   1      40.770  10.181  68.6240  0.00  0.00     0.000 O
ATOM      9  HD  NGY C   1      40.960  10.748  69.2500  0.00  0.00     0.000 HD
ATOM      9   O  NGY C   1      41.087   7.338  68.7150  0.00  0.00     0.000 O
ATOM     11  HD  NGY C   1      41.277   7.905  69.3420  0.00  0.00     0.000 HD
ENDROOT
BRANCH 2 13
ATOM     11   N  NGY C   1      37.874  11.142  68.1440  0.00  0.00     0.000 N
ATOM     13  HD  NGY C   1      38.318  11.711  68.6220  0.00  0.00     0.000 HD
ATOM     13   C  NGY C   1      38.277  12.336  68.5730  0.00  0.00     0.000 C
ATOM     14   O  NGY C   1      38.991  12.447  69.5710  0.00  0.00     0.000 OA
ATOM     15   C  NGY C   1      37.841  13.523  67.7690  0.00  0.00     0.000 C
ENDBRANCH 2 13
BRANCH 5 16
ATOM     16   C  NGY C   1      38.691   5.701  69.2510  0.00  0.00     0.000 C
ATOM     17   O  NGY C   1      39.859   2.664  67.5570  0.00  0.00     0.000 OA
ATOM     18   O  NGY C   1      39.002   4.732  68.2460  0.00  0.00     0.000 O
ATOM     19   S  NGY C   1      39.486   3.334  68.7760  0.00  0.00     0.000 S
ATOM     20   O  NGY C   1      38.360   2.711  69.4210  0.00  0.00     0.000 OA
ATOM     21   O  NGY C   1      40.576   3.645  69.6860  0.00  0.00     0.000 OA
ENDBRANCH 5 16
BRANCH 1 22
ATOM     22  O4  BDP C   2      37.026   8.870  67.1310  0.00  0.00     0.000 O
BRANCH 22 26
ATOM     23  C1  BDP C   2      34.496   8.428  63.9110  0.00  0.00     0.000 C
ATOM     24  C2  BDP C   2      34.086   9.474  64.9210  0.00  0.00     0.000 C
ATOM     25  C3  BDP C   2      35.250   9.788  65.8250  0.00  0.00     0.000 C
ATOM     26  C4  BDP C   2      35.805   8.505  66.4350  0.00  0.00     0.000 C
ATOM     27  C5  BDP C   2      36.016   7.463  65.3450  0.00  0.00     0.000 C
ATOM     28  O5  BDP C   2      34.805   7.182  64.5970  0.00  0.00     0.000 O
ATOM     29   O  BDP C   2      33.785  10.729  64.3120  0.00  0.00     0.000 O
ATOM     31  HD  BDP C   2      34.005  11.439  64.7570  0.00  0.00     0.000 HD
ATOM     31   O  BDP C   2      34.759  10.644  66.8480  0.00  0.00     0.000 O
ATOM     33  HD  BDP C   2      34.979  11.353  67.2940  0.00  0.00     0.000 HD
BRANCH 27 33
ATOM     33   C  BDP C   2      36.473   6.134  65.8980  0.00  0.00     0.000 C
ATOM     34   O  BDP C   2      37.454   5.516  65.4190  0.00  0.00     0.000 OA
ATOM     35   O  BDP C   2      35.841   5.639  66.8160  0.00  0.00     0.000 OA
ENDBRANCH 27 33
BRANCH 23 36
ATOM     36  O4  SGN C   3      33.577   8.153  62.9560  0.00  0.00     0.000 O
BRANCH 36 40
ATOM     37  C1  SGN C   3      33.007   7.287  58.9120  0.00  0.00     0.000 C
ATOM     38  C2  SGN C   3      33.270   6.109  59.8650  0.00  0.00     0.000 C
ATOM     39  C3  SGN C   3      33.019   6.525  61.3070  0.00  0.00     0.000 C
ATOM     40  C4  SGN C   3      33.881   7.728  61.6250  0.00  0.00     0.000 C
ATOM     41  C5  SGN C   3      33.574   8.825  60.6290  0.00  0.00     0.000 C
ATOM     42  O5  SGN C   3      33.849   8.362  59.2980  0.00  0.00     0.000 O
ATOM     43   O  SGN C   3      33.327   5.436  62.1680  0.00  0.00     0.000 O
ATOM     45  HD  SGN C   3      33.438   6.185  62.5890  0.00  0.00     0.000 HD
BRANCH 38 47
ATOM     45   N  SGN C   3      33.724   5.467  58.6180  0.00  0.00     0.000 N
ATOM     47  HD  SGN C   3      33.865   6.050  59.2430  0.00  0.00     0.000 HD
ATOM     47   S  SGN C   3      32.922   4.130  58.3090  0.00  0.00     0.000 S
ATOM     48   O  SGN C   3      33.193   3.127  59.2780  0.00  0.00     0.000 OA
ATOM     49   O  SGN C   3      31.556   4.503  58.1380  0.00  0.00     0.000 OA
ATOM     50   O  SGN C   3      33.526   3.706  57.0470  0.00  0.00     0.000 OA
ENDBRANCH 38 47
BRANCH 41 51
ATOM     51   C  SGN C   3      34.366  10.086  60.8400  0.00  0.00     0.000 C
ATOM     52   O  SGN C   3      33.032  13.516  61.4230  0.00  0.00     0.000 OA
ATOM     53   O  SGN C   3      35.014  12.484  62.2840  0.00  0.00     0.000 OA
ATOM     54   O  SGN C   3      34.782  12.897  59.9300  0.00  0.00     0.000 OA
ATOM     55   O  SGN C   3      33.472  11.152  61.0740  0.00  0.00     0.000 O
ATOM     56   S  SGN C   3      34.139  12.652  61.1870  0.00  0.00     0.000 S
ENDBRANCH 41 51
BRANCH 37 57
ATOM     57  O4  IDS C   4      31.727   7.734  58.9050  0.00  0.00     0.000 O
BRANCH 57 61
ATOM     58  C1  IDS C   4      28.834   8.860  56.7070  0.00  0.00     0.000 C
ATOM     59  C2  IDS C   4      29.856   7.933  56.1290  0.00  0.00     0.000 C
ATOM     60  C3  IDS C   4      31.282   8.279  56.5640  0.00  0.00     0.000 C
ATOM     61  C4  IDS C   4      31.453   8.806  57.9820  0.00  0.00     0.000 C
ATOM     62  C5  IDS C   4      30.218   9.602  58.4190  0.00  0.00     0.000 C
ATOM     63  O5  IDS C   4      29.013   8.916  58.1110  0.00  0.00     0.000 O
ATOM     64   O  IDS C   4      31.713   9.281  55.6620  0.00  0.00     0.000 O
ATOM     66  HD  IDS C   4      31.818  10.035  56.0740  0.00  0.00     0.000 HD
BRANCH 59 66
ATOM     66   O  IDS C   4      29.619   6.538  56.5460  0.00  0.00     0.000 O
ATOM     67   S  IDS C   4      29.294   5.495  55.3890  0.00  0.00     0.000 S
ATOM     68   O  IDS C   4      30.516   5.467  54.6200  0.00  0.00     0.000 OA
ATOM     69   O  IDS C   4      28.977   4.260  56.0770  0.00  0.00     0.000 OA
ATOM     70   O  IDS C   4      28.187   6.039  54.6170  0.00  0.00     0.000 OA
ENDBRANCH 59 66
BRANCH 62 71
ATOM     71   C  IDS C   4      30.173   9.859  59.9130  0.00  0.00     0.000 C
ATOM     72   O  IDS C   4      29.769   8.996  60.6680  0.00  0.00     0.000 OA
ATOM     73   O  IDS C   4      30.458  11.000  60.3290  0.00  0.00     0.000 OA
ENDBRANCH 62 71
BRANCH 58 74
ATOM     74  O4  SGN C   5      28.651  10.019  56.0110  0.00  0.00     0.000 O
BRANCH 74 78
ATOM     75  C1  SGN C   5      25.872  12.902  54.8220  0.00  0.00     0.000 C
ATOM     76  C2  SGN C   5      25.803  12.464  56.2980  0.00  0.00     0.000 C
ATOM     77  C3  SGN C   5      27.063  11.682  56.6910  0.00  0.00     0.000 C
ATOM     78  C4  SGN C   5      27.392  10.600  55.6720  0.00  0.00     0.000 C
ATOM     79  C5  SGN C   5      27.444  11.213  54.2800  0.00  0.00     0.000 C
ATOM     80  O5  SGN C   5      26.156  11.805  53.9630  0.00  0.00     0.000 O
ATOM     81   O  SGN C   5      26.868  11.110  57.9810  0.00  0.00     0.000 O
ATOM     83  HD  SGN C   5      26.434  11.529  58.6020  0.00  0.00     0.000 HD
BRANCH 76 85
ATOM     83   N  SGN C   5      24.972  13.673  56.3660  0.00  0.00     0.000 N
ATOM     85  HD  SGN C   5      24.746  14.429  56.7220  0.00  0.00     0.000 HD
ATOM     85   S  SGN C   5      24.357  14.420  57.6530  0.00  0.00     0.000 S
ATOM     86   O  SGN C   5      23.649  15.588  57.2590  0.00  0.00     0.000 OA
ATOM     87   O  SGN C   5      23.638  13.449  58.3980  0.00  0.00     0.000 OA
ATOM     88   O  SGN C   5      25.697  14.792  58.2850  0.00  0.00     0.000 OA
ENDBRANCH 76 85
BRANCH 79 89
ATOM     89   C  SGN C   5      27.790  10.216  53.1930  0.00  0.00     0.000 C
ATOM     90   O  SGN C   5      29.043  10.588  52.5680  0.00  0.00     0.000 O
ATOM     91   S  SGN C   5      29.954   9.390  52.0100  0.00  0.00     0.000 S
ATOM     92   O  SGN C   5      30.115   8.461  53.0990  0.00  0.00     0.000 OA
ATOM     93   O  SGN C   5      29.254   8.811  50.8920  0.00  0.00     0.000 OA
ATOM     94   O  SGN C   5      31.175  10.050  51.6350  0.00  0.00     0.000 OA
ENDBRANCH 79 89
BRANCH 75 95
ATOM     95  O4  BDP C   6      26.887  13.814  54.7520  0.00  0.00     0.000 O
BRANCH 95 99
ATOM     96  C1  BDP C   6      27.409  17.063  51.9920  0.00  0.00     0.000 C
ATOM     97  C2  BDP C   6      26.018  16.562  52.2620  0.00  0.00     0.000 C
ATOM     98  C3  BDP C   6      25.893  15.686  53.5170  0.00  0.00     0.000 C
ATOM     99  C4  BDP C   6      26.966  14.608  53.5480  0.00  0.00     0.000 C
ATOM    100  C5  BDP C   6      28.332  15.287  53.2910  0.00  0.00     0.000 C
ATOM    101  O5  BDP C   6      28.176  15.874  51.9890  0.00  0.00     0.000 O
BRANCH 100 102
ATOM    102   C  BDP C   6      29.468  14.298  53.2220  0.00  0.00     0.000 C
ATOM    103   O  BDP C   6      29.871  13.682  54.2190  0.00  0.00     0.000 OA
ATOM    104   O  BDP C   6      29.982  14.114  52.1120  0.00  0.00     0.000 OA
ENDBRANCH 100 102
ENDBRANCH 95 99
ENDBRANCH 75 95
ENDBRANCH 74 78
ENDBRANCH 58 74
ENDBRANCH 57 61
ENDBRANCH 37 57
ENDBRANCH 36 40
ENDBRANCH 23 36
ENDBRANCH 22 26
ENDBRANCH 1 22
TORSDOF 20
ENDMDL
MODEL 67
REMARK VINA RESULT:      -0.8     83.919     90.091
ROOT
ATOM      1  C1  NGY C   1      27.518  25.157 121.5130  0.00  0.00     0.000 C
ATOM      2  C2  NGY C   1      27.218  26.645 121.6360  0.00  0.00     0.000 C
ATOM      3  C3  NGY C   1      27.979  27.428 120.5710  0.00  0.00     0.000 C
ATOM      4  C4  NGY C   1      29.451  27.082 120.6870  0.00  0.00     0.000 C
ATOM      5  C5  NGY C   1      29.621  25.582 120.4620  0.00  0.00     0.000 C
ATOM      6  O5  NGY C   1      28.903  24.881 121.5100  0.00  0.00     0.000 O
ATOM      7   O  NGY C   1      27.741  28.816 120.7520  0.00  0.00     0.000 O
ATOM      9  HD  NGY C   1      27.632  29.362 121.4150  0.00  0.00     0.000 HD
ATOM      9   O  NGY C   1      30.220  27.808 119.7390  0.00  0.00     0.000 O
ATOM     11  HD  NGY C   1      30.111  28.354 120.4020  0.00  0.00     0.000 HD
ENDROOT
BRANCH 2 13
ATOM     11   N  NGY C   1      25.778  26.662 121.7310  0.00  0.00     0.000 N
ATOM     13  HD  NGY C   1      25.682  27.388 122.1930  0.00  0.00     0.000 HD
ATOM     13   C  NGY C   1      25.132  27.629 122.3800  0.00  0.00     0.000 C
ATOM     14   O  NGY C   1      25.742  28.467 123.0460  0.00  0.00     0.000 OA
ATOM     15   C  NGY C   1      23.641  27.657 122.2350  0.00  0.00     0.000 C
ENDBRANCH 2 13
BRANCH 5 16
ATOM     16   C  NGY C   1      31.030  25.084 120.5360  0.00  0.00     0.000 C
ATOM     17   O  NGY C   1      32.055  22.106 122.4160  0.00  0.00     0.000 OA
ATOM     18   O  NGY C   1      31.100  24.046 121.5170  0.00  0.00     0.000 O
ATOM     19   S  NGY C   1      32.357  23.109 121.4260  0.00  0.00     0.000 S
ATOM     20   O  NGY C   1      33.505  23.901 121.7820  0.00  0.00     0.000 OA
ATOM     21   O  NGY C   1      32.373  22.650 120.0470  0.00  0.00     0.000 OA
ENDBRANCH 5 16
BRANCH 1 22
ATOM     22  O4  BDP C   2      26.891  24.677 120.4180  0.00  0.00     0.000 O
BRANCH 22 26
ATOM     23  C1  BDP C   2      25.019  21.641 118.3590  0.00  0.00     0.000 C
ATOM     24  C2  BDP C   2      24.352  22.059 119.6490  0.00  0.00     0.000 C
ATOM     25  C3  BDP C   2      24.908  23.384 120.0990  0.00  0.00     0.000 C
ATOM     26  C4  BDP C   2      26.431  23.323 120.1670  0.00  0.00     0.000 C
ATOM     27  C5  BDP C   2      26.982  22.724 118.8800  0.00  0.00     0.000 C
ATOM     28  O5  BDP C   2      26.436  21.410 118.5950  0.00  0.00     0.000 O
ATOM     29   O  BDP C   2      22.958  22.317 119.4820  0.00  0.00     0.000 O
ATOM     31  HD  BDP C   2      22.625  22.962 119.9540  0.00  0.00     0.000 HD
ATOM     31   O  BDP C   2      24.371  23.641 121.3900  0.00  0.00     0.000 O
ATOM     33  HD  BDP C   2      24.038  24.286 121.8630  0.00  0.00     0.000 HD
BRANCH 27 33
ATOM     33   C  BDP C   2      28.481  22.545 118.9220  0.00  0.00     0.000 C
ATOM     34   O  BDP C   2      29.060  22.004 119.8950  0.00  0.00     0.000 OA
ATOM     35   O  BDP C   2      29.143  22.974 117.9920  0.00  0.00     0.000 OA
ENDBRANCH 27 33
BRANCH 23 36
ATOM     36  O4  SGN C   3      24.514  20.526 117.7810  0.00  0.00     0.000 O
BRANCH 36 40
ATOM     37  C1  SGN C   3      23.415  18.721 114.1800  0.00  0.00     0.000 C
ATOM     38  C2  SGN C   3      24.901  18.690 114.5700  0.00  0.00     0.000 C
ATOM     39  C3  SGN C   3      25.068  18.979 116.0550  0.00  0.00     0.000 C
ATOM     40  C4  SGN C   3      24.416  20.307 116.3710  0.00  0.00     0.000 C
ATOM     41  C5  SGN C   3      22.969  20.256 115.9350  0.00  0.00     0.000 C
ATOM     42  O5  SGN C   3      22.896  19.997 114.5240  0.00  0.00     0.000 O
ATOM     43   O  SGN C   3      26.454  19.002 116.3750  0.00  0.00     0.000 O
ATOM     45  HD  SGN C   3      26.015  19.507 116.9250  0.00  0.00     0.000 HD
BRANCH 38 47
ATOM     45   N  SGN C   3      24.952  18.456 113.1160  0.00  0.00     0.000 N
ATOM     47  HD  SGN C   3      24.752  18.984 113.7720  0.00  0.00     0.000 HD
ATOM     47   S  SGN C   3      25.860  17.205 112.7440  0.00  0.00     0.000 S
ATOM     48   O  SGN C   3      27.224  17.444 113.0560  0.00  0.00     0.000 OA
ATOM     49   O  SGN C   3      25.253  16.066 113.3520  0.00  0.00     0.000 OA
ATOM     50   O  SGN C   3      25.734  17.169 111.2880  0.00  0.00     0.000 OA
ENDBRANCH 38 47
BRANCH 41 51
ATOM     51   C  SGN C   3      22.201  21.523 116.1990  0.00  0.00     0.000 C
ATOM     52   O  SGN C   3      23.244  25.004 115.3810  0.00  0.00     0.000 OA
ATOM     53   O  SGN C   3      21.057  24.032 115.3920  0.00  0.00     0.000 OA
ATOM     54   O  SGN C   3      22.307  24.238 117.4320  0.00  0.00     0.000 OA
ATOM     55   O  SGN C   3      22.933  22.614 115.6870  0.00  0.00     0.000 O
ATOM     56   S  SGN C   3      22.328  24.112 116.0040  0.00  0.00     0.000 S
ENDBRANCH 41 51
BRANCH 37 57
ATOM     57  O4  IDS C   4      22.652  17.777 114.7830  0.00  0.00     0.000 O
BRANCH 57 61
ATOM     58  C1  IDS C   4      20.327  14.766 114.8220  0.00  0.00     0.000 C
ATOM     59  C2  IDS C   4      21.600  14.680 114.0410  0.00  0.00     0.000 C
ATOM     60  C3  IDS C   4      21.926  15.977 113.2960  0.00  0.00     0.000 C
ATOM     61  C4  IDS C   4      21.554  17.277 113.9960  0.00  0.00     0.000 C
ATOM     62  C5  IDS C   4      20.301  17.089 114.8610  0.00  0.00     0.000 C
ATOM     63  O5  IDS C   4      20.380  15.913 115.6530  0.00  0.00     0.000 O
ATOM     64   O  IDS C   4      21.202  15.902 112.0820  0.00  0.00     0.000 O
ATOM     66  HD  IDS C   4      20.578  16.502 112.0640  0.00  0.00     0.000 HD
BRANCH 59 66
ATOM     66   O  IDS C   4      22.754  14.399 114.9160  0.00  0.00     0.000 O
ATOM     67   S  IDS C   4      23.434  12.969 114.7560  0.00  0.00     0.000 S
ATOM     68   O  IDS C   4      23.965  13.005 113.4150  0.00  0.00     0.000 OA
ATOM     69   O  IDS C   4      24.432  12.911 115.8070  0.00  0.00     0.000 OA
ATOM     70   O  IDS C   4      22.381  11.974 114.8900  0.00  0.00     0.000 OA
ENDBRANCH 59 66
BRANCH 62 71
ATOM     71   C  IDS C   4      20.077  18.227 115.8380  0.00  0.00     0.000 C
ATOM     72   O  IDS C   4      20.310  18.069 117.0210  0.00  0.00     0.000 OA
ATOM     73   O  IDS C   4      19.556  19.278 115.4160  0.00  0.00     0.000 OA
ENDBRANCH 62 71
BRANCH 58 74
ATOM     74  O4  SGN C   5      19.195  14.515 114.1050  0.00  0.00     0.000 O
BRANCH 74 78
ATOM     75  C1  SGN C   5      15.480  12.608 114.0180  0.00  0.00     0.000 C
ATOM     76  C2  SGN C   5      15.562  13.888 114.8710  0.00  0.00     0.000 C
ATOM     77  C3  SGN C   5      16.844  14.669 114.5530  0.00  0.00     0.000 C
ATOM     78  C4  SGN C   5      18.068  13.764 114.5580  0.00  0.00     0.000 C
ATOM     79  C5  SGN C   5      17.820  12.570 113.6470  0.00  0.00     0.000 C
ATOM     80  O5  SGN C   5      16.665  11.829 114.1230  0.00  0.00     0.000 O
ATOM     81   O  SGN C   5      16.994  15.716 115.5060  0.00  0.00     0.000 O
ATOM     83  HD  SGN C   5      16.312  16.154 115.8120  0.00  0.00     0.000 HD
BRANCH 76 85
ATOM     83   N  SGN C   5      14.343  14.619 114.5050  0.00  0.00     0.000 N
ATOM     85  HD  SGN C   5      13.663  15.120 114.6950  0.00  0.00     0.000 HD
ATOM     85   S  SGN C   5      12.948  14.744 115.2990  0.00  0.00     0.000 S
ATOM     86   O  SGN C   5      12.050  15.594 114.5970  0.00  0.00     0.000 OA
ATOM     87   O  SGN C   5      12.504  13.424 115.5760  0.00  0.00     0.000 OA
ATOM     88   O  SGN C   5      13.517  15.456 116.5230  0.00  0.00     0.000 OA
ENDBRANCH 76 85
BRANCH 79 89
ATOM     89   C  SGN C   5      18.996  11.618 113.5650  0.00  0.00     0.000 C
ATOM     90   O  SGN C   5      19.024  10.986 112.2610  0.00  0.00     0.000 O
ATOM     91   S  SGN C   5      20.469  10.598 111.6810  0.00  0.00     0.000 S
ATOM     92   O  SGN C   5      21.270  11.792 111.7520  0.00  0.00     0.000 OA
ATOM     93   O  SGN C   5      20.987   9.538 112.5070  0.00  0.00     0.000 OA
ATOM     94   O  SGN C   5      20.183  10.180 110.3350  0.00  0.00     0.000 OA
ENDBRANCH 79 89
BRANCH 75 95
ATOM     95  O4  BDP C   6      15.321  13.030 112.7280  0.00  0.00     0.000 O
BRANCH 95 99
ATOM     96  C1  BDP C   6      13.231  11.011 109.5650  0.00  0.00     0.000 C
ATOM     97  C2  BDP C   6      12.970  10.592 110.9840  0.00  0.00     0.000 C
ATOM     98  C3  BDP C   6      13.451  11.598 112.0410  0.00  0.00     0.000 C
ATOM     99  C4  BDP C   6      14.881  12.044 111.7690  0.00  0.00     0.000 C
ATOM    100  C5  BDP C   6      14.974  12.473 110.2860  0.00  0.00     0.000 C
ATOM    101  O5  BDP C   6      14.621  11.280 109.5680  0.00  0.00     0.000 O
BRANCH 100 102
ATOM    102   C  BDP C   6      16.373  12.863 109.8810  0.00  0.00     0.000 C
ATOM    103   O  BDP C   6      16.646  13.991 109.4450  0.00  0.00     0.000 OA
ATOM    104   O  BDP C   6      17.253  12.004 110.0140  0.00  0.00     0.000 OA
ENDBRANCH 100 102
ENDBRANCH 95 99
ENDBRANCH 75 95
ENDBRANCH 74 78
ENDBRANCH 58 74
ENDBRANCH 57 61
ENDBRANCH 37 57
ENDBRANCH 36 40
ENDBRANCH 23 36
ENDBRANCH 22 26
ENDBRANCH 1 22
TORSDOF 20
ENDMDL
MODEL 68
REMARK VINA RESULT:      -0.8     89.135     93.880
ROOT
ATOM      1  C1  NGY C   1      83.653  80.858  54.6570  0.00  0.00     0.000 C
ATOM      2  C2  NGY C   1      82.700  79.720  54.9940  0.00  0.00     0.000 C
ATOM      3  C3  NGY C   1      81.474  79.771  54.0880  0.00  0.00     0.000 C
ATOM      4  C4  NGY C   1      80.855  81.151  54.2030  0.00  0.00     0.000 C
ATOM      5  C5  NGY C   1      81.883  82.188  53.7600  0.00  0.00     0.000 C
ATOM      6  O5  NGY C   1      83.017  82.118  54.6630  0.00  0.00     0.000 O
ATOM      7   O  NGY C   1      80.568  78.746  54.4700  0.00  0.00     0.000 O
ATOM      9  HD  NGY C   1      80.305  78.369  55.2040  0.00  0.00     0.000 HD
ATOM      9   O  NGY C   1      79.684  81.251  53.4050  0.00  0.00     0.000 O
ATOM     11  HD  NGY C   1      79.421  80.874  54.1390  0.00  0.00     0.000 HD
ENDROOT
BRANCH 2 13
ATOM     11   N  NGY C   1      83.601  78.594  55.0630  0.00  0.00     0.000 N
ATOM     13  HD  NGY C   1      83.145  78.090  55.6010  0.00  0.00     0.000 HD
ATOM     13   C  NGY C   1      83.322  77.522  55.8040  0.00  0.00     0.000 C
ATOM     14   O  NGY C   1      82.357  77.509  56.5690  0.00  0.00     0.000 OA
ATOM     15   C  NGY C   1      84.222  76.336  55.6350  0.00  0.00     0.000 C
ENDBRANCH 2 13
BRANCH 5 16
ATOM     16   C  NGY C   1      81.415  83.607  53.8080  0.00  0.00     0.000 C
ATOM     17   O  NGY C   1      80.237  85.478  50.8800  0.00  0.00     0.000 OA
ATOM     18   O  NGY C   1      81.239  84.079  52.4690  0.00  0.00     0.000 O
ATOM     19   S  NGY C   1      80.345  85.361  52.3120  0.00  0.00     0.000 S
ATOM     20   O  NGY C   1      81.068  86.459  52.8990  0.00  0.00     0.000 OA
ATOM     21   O  NGY C   1      79.113  85.037  53.0130  0.00  0.00     0.000 OA
ENDBRANCH 5 16
BRANCH 1 22
ATOM     22  O4  BDP C   2      84.256  80.586  53.4810  0.00  0.00     0.000 O
BRANCH 22 26
ATOM     23  C1  BDP C   2      87.524  80.758  50.9800  0.00  0.00     0.000 C
ATOM     24  C2  BDP C   2      87.788  80.195  52.3570  0.00  0.00     0.000 C
ATOM     25  C3  BDP C   2      86.481  79.850  53.0210  0.00  0.00     0.000 C
ATOM     26  C4  BDP C   2      85.544  81.053  53.0010  0.00  0.00     0.000 C
ATOM     27  C5  BDP C   2      85.491  81.644  51.5980  0.00  0.00     0.000 C
ATOM     28  O5  BDP C   2      86.801  82.015  51.0970  0.00  0.00     0.000 O
ATOM     29   O  BDP C   2      88.482  78.949  52.3120  0.00  0.00     0.000 O
ATOM     31  HD  BDP C   2      88.268  78.364  52.9140  0.00  0.00     0.000 HD
ATOM     31   O  BDP C   2      86.782  79.488  54.3630  0.00  0.00     0.000 O
ATOM     33  HD  BDP C   2      86.568  78.904  54.9650  0.00  0.00     0.000 HD
BRANCH 27 33
ATOM     33   C  BDP C   2      84.655  82.899  51.5300  0.00  0.00     0.000 C
ATOM     34   O  BDP C   2      83.816  83.092  50.6180  0.00  0.00     0.000 OA
ATOM     35   O  BDP C   2      84.834  83.761  52.3750  0.00  0.00     0.000 OA
ENDBRANCH 27 33
BRANCH 23 36
ATOM     36  O4  SGN C   3      88.625  80.987  50.2270  0.00  0.00     0.000 O
BRANCH 36 40
ATOM     37  C1  SGN C   3      90.292  80.714  46.4090  0.00  0.00     0.000 C
ATOM     38  C2  SGN C   3      89.400  81.929  46.7140  0.00  0.00     0.000 C
ATOM     39  C3  SGN C   3      89.242  82.109  48.2170  0.00  0.00     0.000 C
ATOM     40  C4  SGN C   3      88.694  80.828  48.8070  0.00  0.00     0.000 C
ATOM     41  C5  SGN C   3      89.617  79.687  48.4400  0.00  0.00     0.000 C
ATOM     42  O5  SGN C   3      89.702  79.572  47.0110  0.00  0.00     0.000 O
ATOM     43   O  SGN C   3      88.367  83.201  48.4680  0.00  0.00     0.000 O
ATOM     45  HD  SGN C   3      88.330  82.637  49.1240  0.00  0.00     0.000 HD
BRANCH 38 47
ATOM     45   N  SGN C   3      89.372  81.888  45.2410  0.00  0.00     0.000 N
ATOM     47  HD  SGN C   3      89.176  81.508  45.9940  0.00  0.00     0.000 HD
ATOM     47   S  SGN C   3      89.699  83.304  44.5980  0.00  0.00     0.000 S
ATOM     48   O  SGN C   3      88.684  84.253  44.8900  0.00  0.00     0.000 OA
ATOM     49   O  SGN C   3      91.025  83.640  45.0020  0.00  0.00     0.000 OA
ATOM     50   O  SGN C   3      89.632  83.004  43.1690  0.00  0.00     0.000 OA
ENDBRANCH 38 47
BRANCH 41 51
ATOM     51   C  SGN C   3      89.185  78.349  48.9740  0.00  0.00     0.000 C
ATOM     52   O  SGN C   3      85.784  76.840  48.7910  0.00  0.00     0.000 OA
ATOM     53   O  SGN C   3      87.928  75.779  48.7100  0.00  0.00     0.000 OA
ATOM     54   O  SGN C   3      87.210  76.922  50.6960  0.00  0.00     0.000 OA
ATOM     55   O  SGN C   3      87.828  78.145  48.6480  0.00  0.00     0.000 O
ATOM     56   S  SGN C   3      87.123  76.795  49.2710  0.00  0.00     0.000 S
ENDBRANCH 41 51
BRANCH 37 57
ATOM     57  O4  IDS C   4      91.566  80.820  46.8600  0.00  0.00     0.000 O
BRANCH 57 61
ATOM     58  C1  IDS C   4      95.345  80.973  46.4550  0.00  0.00     0.000 C
ATOM     59  C2  IDS C   4      94.498  81.898  45.6410  0.00  0.00     0.000 C
ATOM     60  C3  IDS C   4      93.227  81.227  45.1130  0.00  0.00     0.000 C
ATOM     61  C4  IDS C   4      92.568  80.204  46.0280  0.00  0.00     0.000 C
ATOM     62  C5  IDS C   4      93.617  79.479  46.8790  0.00  0.00     0.000 C
ATOM     63  O5  IDS C   4      94.540  80.387  47.4630  0.00  0.00     0.000 O
ATOM     64   O  IDS C   4      93.619  80.572  43.9210  0.00  0.00     0.000 O
ATOM     66  HD  IDS C   4      93.569  79.713  44.0170  0.00  0.00     0.000 HD
BRANCH 59 66
ATOM     66   O  IDS C   4      94.058  83.066  46.4290  0.00  0.00     0.000 O
ATOM     67   S  IDS C   4      94.671  84.474  46.0150  0.00  0.00     0.000 S
ATOM     68   O  IDS C   4      94.146  84.684  44.6870  0.00  0.00     0.000 OA
ATOM     69   O  IDS C   4      94.185  85.402  47.0180  0.00  0.00     0.000 OA
ATOM     70   O  IDS C   4      96.118  84.326  46.0030  0.00  0.00     0.000 OA
ENDBRANCH 59 66
BRANCH 62 71
ATOM     71   C  IDS C   4      93.014  78.707  48.0370  0.00  0.00     0.000 C
ATOM     72   O  IDS C   4      93.179  79.091  49.1780  0.00  0.00     0.000 OA
ATOM     73   O  IDS C   4      92.441  77.626  47.7950  0.00  0.00     0.000 OA
ENDBRANCH 62 71
BRANCH 58 74
ATOM     74  O4  SGN C   5      96.190  80.182  45.7330  0.00  0.00     0.000 O
BRANCH 74 78
ATOM     75  C1  SGN C   5     100.030  78.573  45.4070  0.00  0.00     0.000 C
ATOM     76  C2  SGN C   5      99.143  77.984  46.5200  0.00  0.00     0.000 C
ATOM     77  C3  SGN C   5      97.678  78.398  46.3230  0.00  0.00     0.000 C
ATOM     78  C4  SGN C   5      97.548  79.892  46.0620  0.00  0.00     0.000 C
ATOM     79  C5  SGN C   5      98.472  80.291  44.9210  0.00  0.00     0.000 C
ATOM     80  O5  SGN C   5      99.844  79.977  45.2760  0.00  0.00     0.000 O
ATOM     81   O  SGN C   5      96.933  78.024  47.4770  0.00  0.00     0.000 O
ATOM     83  HD  SGN C   5      97.098  77.291  47.9070  0.00  0.00     0.000 HD
BRANCH 76 85
ATOM     83   N  SGN C   5      99.517  76.584  46.2870  0.00  0.00     0.000 N
ATOM     85  HD  SGN C   5      99.605  75.761  46.5410  0.00  0.00     0.000 HD
ATOM     85   S  SGN C   5     100.282  75.553  47.2600  0.00  0.00     0.000 S
ATOM     86   O  SGN C   5     100.397  74.278  46.6420  0.00  0.00     0.000 OA
ATOM     87   O  SGN C   5     101.485  76.182  47.6730  0.00  0.00     0.000 OA
ATOM     88   O  SGN C   5      99.211  75.529  48.3490  0.00  0.00     0.000 OA
ENDBRANCH 76 85
BRANCH 79 89
ATOM     89   C  SGN C   5      98.396  81.763  44.5690  0.00  0.00     0.000 C
ATOM     90   O  SGN C   5      98.547  81.932  43.1380  0.00  0.00     0.000 O
ATOM     91   S  SGN C   5      97.773  83.172  42.4740  0.00  0.00     0.000 S
ATOM     92   O  SGN C   5      96.399  83.064  42.8910  0.00  0.00     0.000 OA
ATOM     93   O  SGN C   5      98.403  84.373  42.9570  0.00  0.00     0.000 OA
ATOM     94   O  SGN C   5      97.960  82.960  41.0640  0.00  0.00     0.000 OA
ENDBRANCH 79 89
BRANCH 75 95
ATOM     95  O4  BDP C   6      99.644  77.949  44.2550  0.00  0.00     0.000 O
BRANCH 95 99
ATOM     96  C1  BDP C   6     102.023  76.731  40.8930  0.00  0.00     0.000 C
ATOM     97  C2  BDP C   6     102.675  76.822  42.2430  0.00  0.00     0.000 C
ATOM     98  C3  BDP C   6     101.690  76.885  43.4200  0.00  0.00     0.000 C
ATOM     99  C4  BDP C   6     100.604  77.922  43.1760  0.00  0.00     0.000 C
ATOM    100  C5  BDP C   6     100.012  77.672  41.7690  0.00  0.00     0.000 C
ATOM    101  O5  BDP C   6     101.141  77.838  40.8950  0.00  0.00     0.000 O
BRANCH 100 102
ATOM    102   C  BDP C   6      98.973  78.695  41.3850  0.00  0.00     0.000 C
ATOM    103   O  BDP C   6      99.255  79.714  40.7370  0.00  0.00     0.000 OA
ATOM    104   O  BDP C   6      97.809  78.468  41.7360  0.00  0.00     0.000 OA
ENDBRANCH 100 102
ENDBRANCH 95 99
ENDBRANCH 75 95
ENDBRANCH 74 78
ENDBRANCH 58 74
ENDBRANCH 57 61
ENDBRANCH 37 57
ENDBRANCH 36 40
ENDBRANCH 23 36
ENDBRANCH 22 26
ENDBRANCH 1 22
TORSDOF 20
ENDMDL
MODEL 69
REMARK VINA RESULT:      -0.8     73.124     77.431
ROOT
ATOM      1  C1  NGY C   1      72.334  79.989  36.4340  0.00  0.00     0.000 C
ATOM      2  C2  NGY C   1      73.140  80.857  37.3920  0.00  0.00     0.000 C
ATOM      3  C3  NGY C   1      74.159  80.007  38.1440  0.00  0.00     0.000 C
ATOM      4  C4  NGY C   1      73.423  78.864  38.8160  0.00  0.00     0.000 C
ATOM      5  C5  NGY C   1      72.730  78.030  37.7420  0.00  0.00     0.000 C
ATOM      6  O5  NGY C   1      71.756  78.870  37.0710  0.00  0.00     0.000 O
ATOM      7   O  NGY C   1      74.846  80.824  39.0810  0.00  0.00     0.000 O
ATOM      9  HD  NGY C   1      74.661  81.489  39.6040  0.00  0.00     0.000 HD
ATOM      9   O  NGY C   1      74.318  78.053  39.5630  0.00  0.00     0.000 O
ATOM     11  HD  NGY C   1      74.132  78.718  40.0850  0.00  0.00     0.000 HD
ENDROOT
BRANCH 2 13
ATOM     11   N  NGY C   1      73.509  81.971  36.5510  0.00  0.00     0.000 N
ATOM     13  HD  NGY C   1      73.588  82.580  37.1610  0.00  0.00     0.000 HD
ATOM     13   C  NGY C   1      73.743  83.181  37.0570  0.00  0.00     0.000 C
ATOM     14   O  NGY C   1      73.515  83.430  38.2420  0.00  0.00     0.000 OA
ATOM     15   C  NGY C   1      74.319  84.201  36.1240  0.00  0.00     0.000 C
ENDBRANCH 2 13
BRANCH 5 16
ATOM     16   C  NGY C   1      71.964  76.850  38.2500  0.00  0.00     0.000 C
ATOM     17   O  NGY C   1      68.583  75.966  37.1340  0.00  0.00     0.000 OA
ATOM     18   O  NGY C   1      70.620  76.933  37.7690  0.00  0.00     0.000 O
ATOM     19   S  NGY C   1      69.798  75.595  37.8140  0.00  0.00     0.000 S
ATOM     20   O  NGY C   1      69.576  75.278  39.2000  0.00  0.00     0.000 OA
ATOM     21   O  NGY C   1      70.637  74.627  37.1250  0.00  0.00     0.000 OA
ENDBRANCH 5 16
BRANCH 1 22
ATOM     22  O4  BDP C   2      73.122  79.645  35.3940  0.00  0.00     0.000 O
BRANCH 22 26
ATOM     23  C1  BDP C   2      73.642  78.458  31.4840  0.00  0.00     0.000 C
ATOM     24  C2  BDP C   2      72.990  79.807  31.6720  0.00  0.00     0.000 C
ATOM     25  C3  BDP C   2      73.192  80.273  33.0900  0.00  0.00     0.000 C
ATOM     26  C4  BDP C   2      72.721  79.203  34.0700  0.00  0.00     0.000 C
ATOM     27  C5  BDP C   2      73.303  77.851  33.6780  0.00  0.00     0.000 C
ATOM     28  O5  BDP C   2      72.972  77.471  32.3180  0.00  0.00     0.000 O
ATOM     29   O  BDP C   2      73.614  80.827  30.8910  0.00  0.00     0.000 O
ATOM     31  HD  BDP C   2      73.659  81.615  31.2480  0.00  0.00     0.000 HD
ATOM     31   O  BDP C   2      72.420  81.456  33.2510  0.00  0.00     0.000 O
ATOM     33  HD  BDP C   2      72.465  82.244  33.6070  0.00  0.00     0.000 HD
BRANCH 27 33
ATOM     33   C  BDP C   2      72.796  76.729  34.5520  0.00  0.00     0.000 C
ATOM     34   O  BDP C   2      71.571  76.518  34.7200  0.00  0.00     0.000 OA
ATOM     35   O  BDP C   2      73.611  76.034  35.1350  0.00  0.00     0.000 OA
ENDBRANCH 27 33
BRANCH 23 36
ATOM     36  O4  SGN C   3      73.645  77.988  30.2150  0.00  0.00     0.000 O
BRANCH 36 40
ATOM     37  C1  SGN C   3      75.885  76.028  27.2870  0.00  0.00     0.000 C
ATOM     38  C2  SGN C   3      75.145  75.162  28.3200  0.00  0.00     0.000 C
ATOM     39  C3  SGN C   3      74.060  75.971  29.0130  0.00  0.00     0.000 C
ATOM     40  C4  SGN C   3      74.688  77.200  29.6350  0.00  0.00     0.000 C
ATOM     41  C5  SGN C   3      75.410  77.977  28.5560  0.00  0.00     0.000 C
ATOM     42  O5  SGN C   3      76.425  77.153  27.9620  0.00  0.00     0.000 O
ATOM     43   O  SGN C   3      73.433  75.164  30.0030  0.00  0.00     0.000 O
ATOM     45  HD  SGN C   3      73.379  75.999  30.2260  0.00  0.00     0.000 HD
BRANCH 38 47
ATOM     45   N  SGN C   3      76.166  74.254  27.7670  0.00  0.00     0.000 N
ATOM     47  HD  SGN C   3      75.981  74.986  28.1910  0.00  0.00     0.000 HD
ATOM     47   S  SGN C   3      75.562  72.831  27.3970  0.00  0.00     0.000 S
ATOM     48   O  SGN C   3      75.136  72.131  28.5570  0.00  0.00     0.000 OA
ATOM     49   O  SGN C   3      74.580  73.054  26.3870  0.00  0.00     0.000 OA
ATOM     50   O  SGN C   3      76.735  72.139  26.8650  0.00  0.00     0.000 OA
ENDBRANCH 38 47
BRANCH 41 51
ATOM     51   C  SGN C   3      76.079  79.233  29.0460  0.00  0.00     0.000 C
ATOM     52   O  SGN C   3      78.246  79.609  32.0520  0.00  0.00     0.000 OA
ATOM     53   O  SGN C   3      78.364  80.727  29.9390  0.00  0.00     0.000 OA
ATOM     54   O  SGN C   3      76.471  81.047  31.3810  0.00  0.00     0.000 OA
ATOM     55   O  SGN C   3      76.846  78.925  30.1880  0.00  0.00     0.000 O
ATOM     56   S  SGN C   3      77.546  80.197  30.9620  0.00  0.00     0.000 S
ENDBRANCH 41 51
BRANCH 37 57
ATOM     57  O4  IDS C   4      75.112  76.477  26.2680  0.00  0.00     0.000 O
BRANCH 57 61
ATOM     58  C1  IDS C   4      74.076  76.702  22.6150  0.00  0.00     0.000 C
ATOM     59  C2  IDS C   4      74.279  75.350  23.2220  0.00  0.00     0.000 C
ATOM     60  C3  IDS C   4      75.487  75.298  24.1600  0.00  0.00     0.000 C
ATOM     61  C4  IDS C   4      75.763  76.547  24.9850  0.00  0.00     0.000 C
ATOM     62  C5  IDS C   4      75.337  77.807  24.2220  0.00  0.00     0.000 C
ATOM     63  O5  IDS C   4      74.044  77.666  23.6530  0.00  0.00     0.000 O
ATOM     64   O  IDS C   4      76.601  75.064  23.3190  0.00  0.00     0.000 O
ATOM     66  HD  IDS C   4      77.125  75.753  23.3110  0.00  0.00     0.000 HD
BRANCH 59 66
ATOM     66   O  IDS C   4      73.111  74.933  24.0210  0.00  0.00     0.000 O
ATOM     67   S  IDS C   4      72.236  73.740  23.4330  0.00  0.00     0.000 S
ATOM     68   O  IDS C   4      73.145  72.620  23.4640  0.00  0.00     0.000 OA
ATOM     69   O  IDS C   4      71.102  73.632  24.3300  0.00  0.00     0.000 OA
ATOM     70   O  IDS C   4      71.876  74.102  22.0710  0.00  0.00     0.000 OA
ENDBRANCH 59 66
BRANCH 62 71
ATOM     71   C  IDS C   4      75.264  79.039  25.1030  0.00  0.00     0.000 C
ATOM     72   O  IDS C   4      76.282  79.534  25.5460  0.00  0.00     0.000 OA
ATOM     73   O  IDS C   4      74.140  79.461  25.4420  0.00  0.00     0.000 OA
ENDBRANCH 62 71
BRANCH 58 74
ATOM     74  O4  SGN C   5      74.819  76.948  21.4990  0.00  0.00     0.000 O
BRANCH 74 78
ATOM     75  C1  SGN C   5      74.919  78.651  17.6860  0.00  0.00     0.000 C
ATOM     76  C2  SGN C   5      74.959  79.638  18.8680  0.00  0.00     0.000 C
ATOM     77  C3  SGN C   5      75.261  78.901  20.1800  0.00  0.00     0.000 C
ATOM     78  C4  SGN C   5      74.383  77.669  20.3460  0.00  0.00     0.000 C
ATOM     79  C5  SGN C   5      74.485  76.800  19.1010  0.00  0.00     0.000 C
ATOM     80  O5  SGN C   5      74.046  77.559  17.9430  0.00  0.00     0.000 O
ATOM     81   O  SGN C   5      75.073  79.800  21.2680  0.00  0.00     0.000 O
ATOM     83  HD  SGN C   5      75.288  80.637  21.2080  0.00  0.00     0.000 HD
BRANCH 76 85
ATOM     83   N  SGN C   5      75.035  80.698  17.8550  0.00  0.00     0.000 N
ATOM     85  HD  SGN C   5      75.472  81.279  17.3850  0.00  0.00     0.000 HD
ATOM     85   S  SGN C   5      75.891  82.062  17.8650  0.00  0.00     0.000 S
ATOM     86   O  SGN C   5      75.699  82.778  16.6510  0.00  0.00     0.000 OA
ATOM     87   O  SGN C   5      75.582  82.742  19.0720  0.00  0.00     0.000 OA
ATOM     88   O  SGN C   5      77.265  81.396  17.8850  0.00  0.00     0.000 OA
ENDBRANCH 76 85
BRANCH 79 89
ATOM     89   C  SGN C   5      73.661  75.532  19.1810  0.00  0.00     0.000 C
ATOM     90   O  SGN C   5      72.441  75.691  18.4160  0.00  0.00     0.000 O
ATOM     91   S  SGN C   5      71.842  74.369  17.7300  0.00  0.00     0.000 S
ATOM     92   O  SGN C   5      72.916  73.783  16.9710  0.00  0.00     0.000 OA
ATOM     93   O  SGN C   5      71.385  73.511  18.7920  0.00  0.00     0.000 OA
ATOM     94   O  SGN C   5      70.774  74.877  16.9120  0.00  0.00     0.000 OA
ENDBRANCH 79 89
BRANCH 75 95
ATOM     95  O4  BDP C   6      76.197  78.191  17.5410  0.00  0.00     0.000 O
BRANCH 95 99
ATOM     96  C1  BDP C   6      78.333  76.757  14.1020  0.00  0.00     0.000 C
ATOM     97  C2  BDP C   6      77.443  77.958  13.9490  0.00  0.00     0.000 C
ATOM     98  C3  BDP C   6      77.035  78.618  15.2760  0.00  0.00     0.000 C
ATOM     99  C4  BDP C   6      76.532  77.585  16.2740  0.00  0.00     0.000 C
ATOM    100  C5  BDP C   6      77.570  76.440  16.3410  0.00  0.00     0.000 C
ATOM    101  O5  BDP C   6      77.604  75.937  14.9960  0.00  0.00     0.000 O
BRANCH 100 102
ATOM    102   C  BDP C   6      77.138  75.316  17.2470  0.00  0.00     0.000 C
ATOM    103   O  BDP C   6      77.650  75.127  18.3600  0.00  0.00     0.000 OA
ATOM    104   O  BDP C   6      76.229  74.585  16.8360  0.00  0.00     0.000 OA
ENDBRANCH 100 102
ENDBRANCH 95 99
ENDBRANCH 75 95
ENDBRANCH 74 78
ENDBRANCH 58 74
ENDBRANCH 57 61
ENDBRANCH 37 57
ENDBRANCH 36 40
ENDBRANCH 23 36
ENDBRANCH 22 26
ENDBRANCH 1 22
TORSDOF 20
ENDMDL
MODEL 70
REMARK VINA RESULT:      -0.8     94.865     97.635
ROOT
ATOM      1  C1  NGY C   1     105.250  64.262  42.3340  0.00  0.00     0.000 C
ATOM      2  C2  NGY C   1     106.439  64.343  41.3870  0.00  0.00     0.000 C
ATOM      3  C3  NGY C   1     106.921  65.785  41.2650  0.00  0.00     0.000 C
ATOM      4  C4  NGY C   1     105.743  66.646  40.8530  0.00  0.00     0.000 C
ATOM      5  C5  NGY C   1     104.661  66.541  41.9230  0.00  0.00     0.000 C
ATOM      6  O5  NGY C   1     104.218  65.160  41.9870  0.00  0.00     0.000 O
ATOM      7   O  NGY C   1     107.982  65.844  40.3220  0.00  0.00     0.000 O
ATOM      9  HD  NGY C   1     108.193  65.459  39.5750  0.00  0.00     0.000 HD
ATOM      9   O  NGY C   1     106.137  68.001  40.6890  0.00  0.00     0.000 O
ATOM     11  HD  NGY C   1     106.348  67.617  39.9420  0.00  0.00     0.000 HD
ENDROOT
BRANCH 2 13
ATOM     11   N  NGY C   1     107.334  63.321  41.8790  0.00  0.00     0.000 N
ATOM     13  HD  NGY C   1     107.691  63.082  41.1270  0.00  0.00     0.000 HD
ATOM     13   C  NGY C   1     108.128  62.634  41.0590  0.00  0.00     0.000 C
ATOM     14   O  NGY C   1     108.027  62.743  39.8360  0.00  0.00     0.000 OA
ATOM     15   C  NGY C   1     109.157  61.754  41.7000  0.00  0.00     0.000 C
ENDBRANCH 2 13
BRANCH 5 16
ATOM     16   C  NGY C   1     103.429  67.348  41.6630  0.00  0.00     0.000 C
ATOM     17   O  NGY C   1     102.725  70.581  43.2490  0.00  0.00     0.000 OA
ATOM     18   O  NGY C   1     103.381  68.428  42.6000  0.00  0.00     0.000 O
ATOM     19   S  NGY C   1     102.432  69.619  42.2160  0.00  0.00     0.000 S
ATOM     20   O  NGY C   1     101.081  69.129  42.2910  0.00  0.00     0.000 OA
ATOM     21   O  NGY C   1     102.840  69.993  40.8710  0.00  0.00     0.000 OA
ENDBRANCH 5 16
BRANCH 1 22
ATOM     22  O4  BDP C   2     105.689  64.440  43.5990  0.00  0.00     0.000 O
BRANCH 22 26
ATOM     23  C1  BDP C   2     105.471  63.681  47.6410  0.00  0.00     0.000 C
ATOM     24  C2  BDP C   2     105.670  62.469  46.7620  0.00  0.00     0.000 C
ATOM     25  C3  BDP C   2     106.094  62.907  45.3850  0.00  0.00     0.000 C
ATOM     26  C4  BDP C   2     105.111  63.933  44.8310  0.00  0.00     0.000 C
ATOM     27  C5  BDP C   2     104.854  65.016  45.8700  0.00  0.00     0.000 C
ATOM     28  O5  BDP C   2     104.369  64.481  47.1290  0.00  0.00     0.000 O
ATOM     29   O  BDP C   2     106.752  61.649  47.2030  0.00  0.00     0.000 O
ATOM     31  HD  BDP C   2     107.223  61.265  46.5860  0.00  0.00     0.000 HD
ATOM     31   O  BDP C   2     106.101  61.745  44.5650  0.00  0.00     0.000 O
ATOM     33  HD  BDP C   2     106.572  61.361  43.9480  0.00  0.00     0.000 HD
BRANCH 27 33
ATOM     33   C  BDP C   2     103.812  66.013  45.4200  0.00  0.00     0.000 C
ATOM     34   O  BDP C   2     103.955  67.247  45.5900  0.00  0.00     0.000 OA
ATOM     35   O  BDP C   2     102.789  65.591  44.9070  0.00  0.00     0.000 OA
ENDBRANCH 27 33
BRANCH 23 36
ATOM     36  O4  SGN C   3     105.215  63.417  48.9430  0.00  0.00     0.000 O
BRANCH 36 40
ATOM     37  C1  SGN C   3     105.973  64.533  52.8940  0.00  0.00     0.000 C
ATOM     38  C2  SGN C   3     104.936  65.351  52.1080  0.00  0.00     0.000 C
ATOM     39  C3  SGN C   3     104.464  64.577  50.8860  0.00  0.00     0.000 C
ATOM     40  C4  SGN C   3     105.667  64.209  50.0450  0.00  0.00     0.000 C
ATOM     41  C5  SGN C   3     106.641  63.430  50.9010  0.00  0.00     0.000 C
ATOM     42  O5  SGN C   3     107.050  64.230  52.0210  0.00  0.00     0.000 O
ATOM     43   O  SGN C   3     103.552  65.380  50.1460  0.00  0.00     0.000 O
ATOM     45  HD  SGN C   3     103.951  64.823  49.6160  0.00  0.00     0.000 HD
BRANCH 38 47
ATOM     45   N  SGN C   3     105.309  66.279  53.1900  0.00  0.00     0.000 N
ATOM     47  HD  SGN C   3     105.545  65.832  52.4870  0.00  0.00     0.000 HD
ATOM     47   S  SGN C   3     104.035  66.883  53.9240  0.00  0.00     0.000 S
ATOM     48   O  SGN C   3     103.286  67.721  53.0570  0.00  0.00     0.000 OA
ATOM     49   O  SGN C   3     103.341  65.782  54.5090  0.00  0.00     0.000 OA
ATOM     50   O  SGN C   3     104.653  67.732  54.9410  0.00  0.00     0.000 OA
ENDBRANCH 38 47
BRANCH 41 51
ATOM     51   C  SGN C   3     107.887  62.997  50.1780  0.00  0.00     0.000 C
ATOM     52   O  SGN C   3     110.123  65.109  48.0770  0.00  0.00     0.000 OA
ATOM     53   O  SGN C   3     110.666  63.259  49.4970  0.00  0.00     0.000 OA
ATOM     54   O  SGN C   3     109.297  62.938  47.5500  0.00  0.00     0.000 OA
ATOM     55   O  SGN C   3     108.458  64.119  49.5430  0.00  0.00     0.000 O
ATOM     56   S  SGN C   3     109.757  63.827  48.5750  0.00  0.00     0.000 S
ENDBRANCH 41 51
BRANCH 37 57
ATOM     57  O4  IDS C   4     105.504  63.369  53.4070  0.00  0.00     0.000 O
BRANCH 57 61
ATOM     58  C1  IDS C   4     104.654  60.983  56.2460  0.00  0.00     0.000 C
ATOM     59  C2  IDS C   4     104.165  62.395  56.3230  0.00  0.00     0.000 C
ATOM     60  C3  IDS C   4     105.202  63.408  55.8330  0.00  0.00     0.000 C
ATOM     61  C4  IDS C   4     106.080  62.974  54.6670  0.00  0.00     0.000 C
ATOM     62  C5  IDS C   4     106.327  61.461  54.7070  0.00  0.00     0.000 C
ATOM     63  O5  IDS C   4     105.126  60.737  54.9320  0.00  0.00     0.000 O
ATOM     64   O  IDS C   4     106.035  63.658  56.9490  0.00  0.00     0.000 O
ATOM     66  HD  IDS C   4     106.833  63.353  56.8060  0.00  0.00     0.000 HD
BRANCH 59 66
ATOM     66   O  IDS C   4     102.959  62.597  55.4970  0.00  0.00     0.000 O
ATOM     67   S  IDS C   4     101.582  62.761  56.2780  0.00  0.00     0.000 S
ATOM     68   O  IDS C   4     101.763  63.994  57.0070  0.00  0.00     0.000 OA
ATOM     69   O  IDS C   4     100.569  62.808  55.2420  0.00  0.00     0.000 OA
ATOM     70   O  IDS C   4     101.457  61.621  57.1730  0.00  0.00     0.000 OA
ENDBRANCH 59 66
BRANCH 62 71
ATOM     71   C  IDS C   4     106.895  60.918  53.4090  0.00  0.00     0.000 C
ATOM     72   O  IDS C   4     106.197  60.253  52.6690  0.00  0.00     0.000 OA
ATOM     73   O  IDS C   4     108.110  61.080  53.1790  0.00  0.00     0.000 OA
ENDBRANCH 62 71
BRANCH 58 74
ATOM     74  O4  SGN C   5     105.401  60.574  57.3100  0.00  0.00     0.000 O
BRANCH 74 78
ATOM     75  C1  SGN C   5     106.267  57.474  59.9710  0.00  0.00     0.000 C
ATOM     76  C2  SGN C   5     106.826  57.315  58.5450  0.00  0.00     0.000 C
ATOM     77  C3  SGN C   5     106.742  58.643  57.7790  0.00  0.00     0.000 C
ATOM     78  C4  SGN C   5     105.365  59.278  57.9080  0.00  0.00     0.000 C
ATOM     79  C5  SGN C   5     104.987  59.378  59.3790  0.00  0.00     0.000 C
ATOM     80  O5  SGN C   5     104.967  58.050  59.9650  0.00  0.00     0.000 O
ATOM     81   O  SGN C   5     107.057  58.407  56.4100  0.00  0.00     0.000 O
ATOM     83  HD  SGN C   5     107.664  57.835  56.1760  0.00  0.00     0.000 HD
BRANCH 76 85
ATOM     83   N  SGN C   5     107.401  56.046  59.0060  0.00  0.00     0.000 N
ATOM     85  HD  SGN C   5     108.059  55.562  59.2950  0.00  0.00     0.000 HD
ATOM     85   S  SGN C   5     108.834  55.391  58.6720  0.00  0.00     0.000 S
ATOM     86   O  SGN C   5     108.997  54.166  59.3750  0.00  0.00     0.000 OA
ATOM     87   O  SGN C   5     108.955  55.347  57.2590  0.00  0.00     0.000 OA
ATOM     88   O  SGN C   5     109.673  56.494  59.3130  0.00  0.00     0.000 OA
ENDBRANCH 76 85
BRANCH 79 89
ATOM     89   C  SGN C   5     103.636  60.023  59.6130  0.00  0.00     0.000 C
ATOM     90   O  SGN C   5     102.708  59.040  60.1320  0.00  0.00     0.000 O
ATOM     91   S  SGN C   5     101.571  59.578  61.1300  0.00  0.00     0.000 S
ATOM     92   O  SGN C   5     102.252  60.316  62.1610  0.00  0.00     0.000 OA
ATOM     93   O  SGN C   5     100.684  60.405  60.3530  0.00  0.00     0.000 OA
ATOM     94   O  SGN C   5     100.951  58.371  61.6050  0.00  0.00     0.000 OA
ENDBRANCH 79 89
BRANCH 75 95
ATOM     95  O4  BDP C   6     107.134  58.306  60.6200  0.00  0.00     0.000 O
BRANCH 95 99
ATOM     96  C1  BDP C   6     108.389  58.348  64.7280  0.00  0.00     0.000 C
ATOM     97  C2  BDP C   6     108.062  57.029  64.0870  0.00  0.00     0.000 C
ATOM     98  C3  BDP C   6     108.001  57.068  62.5520  0.00  0.00     0.000 C
ATOM     99  C4  BDP C   6     107.153  58.232  62.0620  0.00  0.00     0.000 C
ATOM    100  C5  BDP C   6     107.634  59.512  62.7850  0.00  0.00     0.000 C
ATOM    101  O5  BDP C   6     107.417  59.216  64.1740  0.00  0.00     0.000 O
BRANCH 100 102
ATOM    102   C  BDP C   6     106.809  60.724  62.4340  0.00  0.00     0.000 C
ATOM    103   O  BDP C   6     105.584  60.766  62.6170  0.00  0.00     0.000 OA
ATOM    104   O  BDP C   6     107.413  61.693  61.9610  0.00  0.00     0.000 OA
ENDBRANCH 100 102
ENDBRANCH 95 99
ENDBRANCH 75 95
ENDBRANCH 74 78
ENDBRANCH 58 74
ENDBRANCH 57 61
ENDBRANCH 37 57
ENDBRANCH 36 40
ENDBRANCH 23 36
ENDBRANCH 22 26
ENDBRANCH 1 22
TORSDOF 20
ENDMDL
MODEL 71
REMARK VINA RESULT:      -0.8    109.132    112.606
ROOT
ATOM      1  C1  NGY C   1      72.364 116.218  75.0280  0.00  0.00     0.000 C
ATOM      2  C2  NGY C   1      72.411 117.235  73.8970  0.00  0.00     0.000 C
ATOM      3  C3  NGY C   1      73.471 118.294  74.1830  0.00  0.00     0.000 C
ATOM      4  C4  NGY C   1      73.186 118.897  75.5460  0.00  0.00     0.000 C
ATOM      5  C5  NGY C   1      73.250 117.789  76.5940  0.00  0.00     0.000 C
ATOM      6  O5  NGY C   1      72.211 116.821  76.2950  0.00  0.00     0.000 O
ATOM      7   O  NGY C   1      73.446 119.271  73.1520  0.00  0.00     0.000 O
ATOM      9  HD  NGY C   1      72.851 119.658  72.6560  0.00  0.00     0.000 HD
ATOM      9   O  NGY C   1      74.123 119.918  75.8560  0.00  0.00     0.000 O
ATOM     11  HD  NGY C   1      73.529 120.305  75.3600  0.00  0.00     0.000 HD
ENDROOT
BRANCH 2 13
ATOM     11   N  NGY C   1      72.467 116.398  72.7220  0.00  0.00     0.000 N
ATOM     13  HD  NGY C   1      72.073 116.928  72.1610  0.00  0.00     0.000 HD
ATOM     13   C  NGY C   1      71.961 116.798  71.5560  0.00  0.00     0.000 C
ATOM     14   O  NGY C   1      71.301 117.834  71.4690  0.00  0.00     0.000 OA
ATOM     15   C  NGY C   1      72.261 115.940  70.3640  0.00  0.00     0.000 C
ENDBRANCH 2 13
BRANCH 5 16
ATOM     16   C  NGY C   1      72.998 118.231  78.0000  0.00  0.00     0.000 C
ATOM     17   O  NGY C   1      75.651 118.895  80.4460  0.00  0.00     0.000 OA
ATOM     18   O  NGY C   1      74.231 118.184  78.7240  0.00  0.00     0.000 O
ATOM     19   S  NGY C   1      74.269 119.017  80.0560  0.00  0.00     0.000 S
ATOM     20   O  NGY C   1      73.379 118.374  80.9860  0.00  0.00     0.000 OA
ATOM     21   O  NGY C   1      73.838 120.350  79.6660  0.00  0.00     0.000 OA
ENDBRANCH 5 16
BRANCH 1 22
ATOM     22  O4  BDP C   2      73.461 115.435  74.9540  0.00  0.00     0.000 O
BRANCH 22 26
ATOM     23  C1  BDP C   2      75.339 111.797  75.4070  0.00  0.00     0.000 C
ATOM     24  C2  BDP C   2      74.121 111.793  74.5150  0.00  0.00     0.000 C
ATOM     25  C3  BDP C   2      73.759 113.208  74.1450  0.00  0.00     0.000 C
ATOM     26  C4  BDP C   2      73.618 114.062  75.4010  0.00  0.00     0.000 C
ATOM     27  C5  BDP C   2      74.824 113.853  76.3070  0.00  0.00     0.000 C
ATOM     28  O5  BDP C   2      75.022 112.460  76.6640  0.00  0.00     0.000 O
ATOM     29   O  BDP C   2      74.371 111.169  73.2560  0.00  0.00     0.000 O
ATOM     31  HD  BDP C   2      73.970 111.510  72.5680  0.00  0.00     0.000 HD
ATOM     31   O  BDP C   2      72.519 113.150  73.4520  0.00  0.00     0.000 O
ATOM     33  HD  BDP C   2      72.118 113.491  72.7640  0.00  0.00     0.000 HD
BRANCH 27 33
ATOM     33   C  BDP C   2      74.700 114.597  77.6150  0.00  0.00     0.000 C
ATOM     34   O  BDP C   2      75.660 115.234  78.1120  0.00  0.00     0.000 OA
ATOM     35   O  BDP C   2      73.640 114.543  78.2150  0.00  0.00     0.000 OA
ENDBRANCH 27 33
BRANCH 23 36
ATOM     36  O4  SGN C   3      75.845 110.578  75.7050  0.00  0.00     0.000 O
BRANCH 36 40
ATOM     37  C1  SGN C   3      79.327 108.320  76.1620  0.00  0.00     0.000 C
ATOM     38  C2  SGN C   3      78.878 109.190  77.3480  0.00  0.00     0.000 C
ATOM     39  C3  SGN C   3      77.417 109.584  77.1960  0.00  0.00     0.000 C
ATOM     40  C4  SGN C   3      77.235 110.283  75.8660  0.00  0.00     0.000 C
ATOM     41  C5  SGN C   3      77.721 109.369  74.7640  0.00  0.00     0.000 C
ATOM     42  O5  SGN C   3      79.107 109.056  74.9680  0.00  0.00     0.000 O
ATOM     43   O  SGN C   3      77.046 110.435  78.2740  0.00  0.00     0.000 O
ATOM     45  HD  SGN C   3      76.556 110.606  77.5810  0.00  0.00     0.000 HD
BRANCH 38 47
ATOM     45   N  SGN C   3      80.303 108.947  77.6350  0.00  0.00     0.000 N
ATOM     47  HD  SGN C   3      79.703 109.285  77.1100  0.00  0.00     0.000 HD
ATOM     47   S  SGN C   3      80.539 108.480  79.1360  0.00  0.00     0.000 S
ATOM     48   O  SGN C   3      80.221 109.514  80.0560  0.00  0.00     0.000 OA
ATOM     49   O  SGN C   3      79.843 107.245  79.2940  0.00  0.00     0.000 OA
ATOM     50   O  SGN C   3      81.988 108.288  79.1630  0.00  0.00     0.000 OA
ENDBRANCH 38 47
BRANCH 41 51
ATOM     51   C  SGN C   3      77.590 109.948  73.3810  0.00  0.00     0.000 C
ATOM     52   O  SGN C   3      78.625 113.343  72.2510  0.00  0.00     0.000 OA
ATOM     53   O  SGN C   3      78.639 111.269  71.0560  0.00  0.00     0.000 OA
ATOM     54   O  SGN C   3      76.566 112.244  71.7750  0.00  0.00     0.000 OA
ATOM     55   O  SGN C   3      78.150 111.242  73.3740  0.00  0.00     0.000 O
ATOM     56   S  SGN C   3      77.977 112.105  71.9830  0.00  0.00     0.000 S
ENDBRANCH 41 51
BRANCH 37 57
ATOM     57  O4  IDS C   4      78.679 107.134  76.0530  0.00  0.00     0.000 O
BRANCH 57 61
ATOM     58  C1  IDS C   4      78.483 103.335  76.0180  0.00  0.00     0.000 C
ATOM     59  C2  IDS C   4      79.168 104.008  77.1650  0.00  0.00     0.000 C
ATOM     60  C3  IDS C   4      80.019 105.203  76.7270  0.00  0.00     0.000 C
ATOM     61  C4  IDS C   4      79.479 106.037  75.5730  0.00  0.00     0.000 C
ATOM     62  C5  IDS C   4      78.681 105.163  74.5980  0.00  0.00     0.000 C
ATOM     63  O5  IDS C   4      77.770 104.312  75.2780  0.00  0.00     0.000 O
ATOM     64   O  IDS C   4      81.262 104.652  76.3350  0.00  0.00     0.000 O
ATOM     66  HD  IDS C   4      81.381 104.748  75.4830  0.00  0.00     0.000 HD
BRANCH 59 66
ATOM     66   O  IDS C   4      78.198 104.524  78.1500  0.00  0.00     0.000 O
ATOM     67   S  IDS C   4      78.148 103.779  79.5550  0.00  0.00     0.000 S
ATOM     68   O  IDS C   4      79.450 104.049  80.1170  0.00  0.00     0.000 OA
ATOM     69   O  IDS C   4      77.040 104.390  80.2620  0.00  0.00     0.000 OA
ATOM     70   O  IDS C   4      77.964 102.362  79.2840  0.00  0.00     0.000 OA
ENDBRANCH 59 66
BRANCH 62 71
ATOM     71   C  IDS C   4      77.840 105.970  73.6270  0.00  0.00     0.000 C
ATOM     72   O  IDS C   4      78.372 106.579  72.7190  0.00  0.00     0.000 OA
ATOM     73   O  IDS C   4      76.617 106.075  73.8470  0.00  0.00     0.000 OA
ENDBRANCH 62 71
BRANCH 58 74
ATOM     74  O4  SGN C   5      79.241 102.417  75.3540  0.00  0.00     0.000 O
BRANCH 74 78
ATOM     75  C1  SGN C   5      79.379  98.635  73.5880  0.00  0.00     0.000 C
ATOM     76  C2  SGN C   5      78.573  99.706  72.8290  0.00  0.00     0.000 C
ATOM     77  C3  SGN C   5      78.877 101.105  73.3800  0.00  0.00     0.000 C
ATOM     78  C4  SGN C   5      78.797 101.138  74.9000  0.00  0.00     0.000 C
ATOM     79  C5  SGN C   5      79.669 100.034  75.4780  0.00  0.00     0.000 C
ATOM     80  O5  SGN C   5      79.204  98.746  74.9950  0.00  0.00     0.000 O
ATOM     81   O  SGN C   5      77.960 102.035  72.8120  0.00  0.00     0.000 O
ATOM     83  HD  SGN C   5      77.694 101.966  71.9900  0.00  0.00     0.000 HD
BRANCH 76 85
ATOM     83   N  SGN C   5      78.460  98.653  71.8120  0.00  0.00     0.000 N
ATOM     85  HD  SGN C   5      78.634  98.318  71.0330  0.00  0.00     0.000 HD
ATOM     85   S  SGN C   5      78.265  98.787  70.2190  0.00  0.00     0.000 S
ATOM     86   O  SGN C   5      78.252  97.502  69.6100  0.00  0.00     0.000 OA
ATOM     87   O  SGN C   5      77.133  99.615  70.0040  0.00  0.00     0.000 OA
ATOM     88   O  SGN C   5      79.589  99.496  69.9480  0.00  0.00     0.000 OA
ENDBRANCH 76 85
BRANCH 79 89
ATOM     89   C  SGN C   5      79.675  99.999  76.9930  0.00  0.00     0.000 C
ATOM     90   O  SGN C   5      80.984  99.598  77.4690  0.00  0.00     0.000 O
ATOM     91   S  SGN C   5      81.456 100.205  78.8780  0.00  0.00     0.000 S
ATOM     92   O  SGN C   5      81.301 101.633  78.7780  0.00  0.00     0.000 OA
ATOM     93   O  SGN C   5      80.610  99.629  79.8920  0.00  0.00     0.000 OA
ATOM     94   O  SGN C   5      82.827  99.784  78.9760  0.00  0.00     0.000 OA
ENDBRANCH 79 89
BRANCH 75 95
ATOM     95  O4  BDP C   6      80.688  98.859  73.2690  0.00  0.00     0.000 O
BRANCH 95 99
ATOM     96  C1  BDP C   6      83.815  95.932  72.9520  0.00  0.00     0.000 C
ATOM     97  C2  BDP C   6      82.387  95.465  72.9490  0.00  0.00     0.000 C
ATOM     98  C3  BDP C   6      81.358  96.574  72.6810  0.00  0.00     0.000 C
ATOM     99  C4  BDP C   6      81.619  97.792  73.5540  0.00  0.00     0.000 C
ATOM    100  C5  BDP C   6      83.115  98.165  73.4190  0.00  0.00     0.000 C
ATOM    101  O5  BDP C   6      83.797  96.992  73.8900  0.00  0.00     0.000 O
BRANCH 100 102
ATOM    102   C  BDP C   6      83.508  99.319  74.3060  0.00  0.00     0.000 C
ATOM    103   O  BDP C   6      83.734 100.452  73.8570  0.00  0.00     0.000 OA
ATOM    104   O  BDP C   6      83.586  99.090  75.5190  0.00  0.00     0.000 OA
ENDBRANCH 100 102
ENDBRANCH 95 99
ENDBRANCH 75 95
ENDBRANCH 74 78
ENDBRANCH 58 74
ENDBRANCH 57 61
ENDBRANCH 37 57
ENDBRANCH 36 40
ENDBRANCH 23 36
ENDBRANCH 22 26
ENDBRANCH 1 22
TORSDOF 20
ENDMDL
MODEL 72
REMARK VINA RESULT:      -0.8    130.268    134.794
ROOT
ATOM      1  C1  NGY C   1     100.539 117.979  87.4440  0.00  0.00     0.000 C
ATOM      2  C2  NGY C   1     101.506 117.836  86.2770  0.00  0.00     0.000 C
ATOM      3  C3  NGY C   1     102.908 118.266  86.6980  0.00  0.00     0.000 C
ATOM      4  C4  NGY C   1     102.825 119.671  87.2640  0.00  0.00     0.000 C
ATOM      5  C5  NGY C   1     101.892 119.658  88.4720  0.00  0.00     0.000 C
ATOM      6  O5  NGY C   1     100.570 119.267  88.0200  0.00  0.00     0.000 O
ATOM      7   O  NGY C   1     103.775 118.194  85.5750  0.00  0.00     0.000 O
ATOM      9  HD  NGY C   1     103.728 118.341  84.7230  0.00  0.00     0.000 HD
ATOM      9   O  NGY C   1     104.110 120.142  87.6450  0.00  0.00     0.000 O
ATOM     11  HD  NGY C   1     104.062 120.289  86.7930  0.00  0.00     0.000 HD
ENDROOT
BRANCH 2 13
ATOM     11   N  NGY C   1     101.208 116.509  85.7940  0.00  0.00     0.000 N
ATOM     13  HD  NGY C   1     101.433 116.614  84.9650  0.00  0.00     0.000 HD
ATOM     13   C  NGY C   1     101.396 116.171  84.5190  0.00  0.00     0.000 C
ATOM     14   O  NGY C   1     101.696 117.016  83.6740  0.00  0.00     0.000 OA
ATOM     15   C  NGY C   1     101.252 114.719  84.1800  0.00  0.00     0.000 C
ENDBRANCH 2 13
BRANCH 5 16
ATOM     16   C  NGY C   1     101.714 120.978  89.1510  0.00  0.00     0.000 C
ATOM     17   O  NGY C   1     103.367 121.908  92.2910  0.00  0.00     0.000 OA
ATOM     18   O  NGY C   1     102.324 120.916  90.4430  0.00  0.00     0.000 O
ATOM     19   S  NGY C   1     102.634 122.302  91.1150  0.00  0.00     0.000 S
ATOM     20   O  NGY C   1     101.370 122.911  91.4360  0.00  0.00     0.000 OA
ATOM     21   O  NGY C   1     103.393 123.033  90.1140  0.00  0.00     0.000 OA
ENDBRANCH 5 16
BRANCH 1 22
ATOM     22  O4  BDP C   2     100.792 117.002  88.3400  0.00  0.00     0.000 O
BRANCH 22 26
ATOM     23  C1  BDP C   2      99.526 114.260  91.1400  0.00  0.00     0.000 C
ATOM     24  C2  BDP C   2      98.840 114.181  89.7970  0.00  0.00     0.000 C
ATOM     25  C3  BDP C   2      99.629 114.963  88.7800  0.00  0.00     0.000 C
ATOM     26  C4  BDP C   2      99.874 116.383  89.2790  0.00  0.00     0.000 C
ATOM     27  C5  BDP C   2     100.401 116.344  90.7080  0.00  0.00     0.000 C
ATOM     28  O5  BDP C   2      99.516 115.636  91.6130  0.00  0.00     0.000 O
ATOM     29   O  BDP C   2      98.831 112.855  89.2680  0.00  0.00     0.000 O
ATOM     31  HD  BDP C   2      98.917 112.779  88.4090  0.00  0.00     0.000 HD
ATOM     31   O  BDP C   2      98.854 114.992  87.5880  0.00  0.00     0.000 O
ATOM     33  HD  BDP C   2      98.940 114.916  86.7290  0.00  0.00     0.000 HD
BRANCH 27 33
ATOM     33   C  BDP C   2     100.572 117.724  91.2980  0.00  0.00     0.000 C
ATOM     34   O  BDP C   2      99.708 118.621  91.1550  0.00  0.00     0.000 OA
ATOM     35   O  BDP C   2     101.603 117.973  91.9010  0.00  0.00     0.000 OA
ENDBRANCH 27 33
BRANCH 23 36
ATOM     36  O4  SGN C   3      98.985 113.489  92.1130  0.00  0.00     0.000 O
BRANCH 36 40
ATOM     37  C1  SGN C   3      99.789 110.942  95.3210  0.00  0.00     0.000 C
ATOM     38  C2  SGN C   3      99.833 112.456  95.5830  0.00  0.00     0.000 C
ATOM     39  C3  SGN C   3      99.108 113.209  94.4770  0.00  0.00     0.000 C
ATOM     40  C4  SGN C   3      99.726 112.835  93.1460  0.00  0.00     0.000 C
ATOM     41  C5  SGN C   3      99.662 111.332  92.9830  0.00  0.00     0.000 C
ATOM     42  O5  SGN C   3     100.379 110.697  94.0530  0.00  0.00     0.000 O
ATOM     43   O  SGN C   3      99.215 114.607  94.7130  0.00  0.00     0.000 O
ATOM     45  HD  SGN C   3      99.128 114.457  93.8650  0.00  0.00     0.000 HD
BRANCH 38 47
ATOM     45   N  SGN C   3     100.620 111.916  96.7060  0.00  0.00     0.000 N
ATOM     47  HD  SGN C   3     100.533 112.028  95.8520  0.00  0.00     0.000 HD
ATOM     47   S  SGN C   3     100.153 112.512  98.1040  0.00  0.00     0.000 S
ATOM     48   O  SGN C   3     100.424 113.903  98.1910  0.00  0.00     0.000 OA
ATOM     49   O  SGN C   3      98.796 112.110  98.2860  0.00  0.00     0.000 OA
ATOM     50   O  SGN C   3     101.047 111.824  99.0330  0.00  0.00     0.000 OA
ENDBRANCH 38 47
BRANCH 41 51
ATOM     51   C  SGN C   3     100.243 110.828  91.6910  0.00  0.00     0.000 C
ATOM     52   O  SGN C   3     103.525 111.744  90.1850  0.00  0.00     0.000 OA
ATOM     53   O  SGN C   3     102.347 109.661  90.1200  0.00  0.00     0.000 OA
ATOM     54   O  SGN C   3     101.427 111.613  89.0670  0.00  0.00     0.000 OA
ATOM     55   O  SGN C   3     101.526 111.389  91.5190  0.00  0.00     0.000 O
ATOM     56   S  SGN C   3     102.275 111.072  90.0880  0.00  0.00     0.000 S
ENDBRANCH 41 51
BRANCH 37 57
ATOM     57  O4  IDS C   4      98.545 110.403  95.3210  0.00  0.00     0.000 O
BRANCH 57 61
ATOM     58  C1  IDS C   4      95.840 108.056  96.6030  0.00  0.00     0.000 C
ATOM     59  C2  IDS C   4      96.576 108.909  97.5870  0.00  0.00     0.000 C
ATOM     60  C3  IDS C   4      98.071 109.015  97.2760  0.00  0.00     0.000 C
ATOM     61  C4  IDS C   4      98.460 109.049  95.8050  0.00  0.00     0.000 C
ATOM     62  C5  IDS C   4      97.477 108.227  94.9640  0.00  0.00     0.000 C
ATOM     63  O5  IDS C   4      96.127 108.520  95.2950  0.00  0.00     0.000 O
ATOM     64   O  IDS C   4      98.655 107.868  97.8650  0.00  0.00     0.000 O
ATOM     66  HD  IDS C   4      98.960 107.335  97.2540  0.00  0.00     0.000 HD
BRANCH 59 66
ATOM     66   O  IDS C   4      96.054 110.289  97.6060  0.00  0.00     0.000 O
ATOM     67   S  IDS C   4      95.277 110.737  98.9200  0.00  0.00     0.000 S
ATOM     68   O  IDS C   4      96.300 110.696  99.9370  0.00  0.00     0.000 OA
ATOM     69   O  IDS C   4      94.767 112.060  98.6190  0.00  0.00     0.000 OA
ATOM     70   O  IDS C   4      94.238 109.748  99.1640  0.00  0.00     0.000 OA
ENDBRANCH 59 66
BRANCH 62 71
ATOM     71   C  IDS C   4      97.600 108.494  93.4750  0.00  0.00     0.000 C
ATOM     72   O  IDS C   4      96.744 109.136  92.8980  0.00  0.00     0.000 OA
ATOM     73   O  IDS C   4      98.536 107.955  92.8510  0.00  0.00     0.000 OA
ENDBRANCH 62 71
BRANCH 58 74
ATOM     74  O4  SGN C   5      95.879 106.718  96.8590  0.00  0.00     0.000 O
BRANCH 74 78
ATOM     75  C1  SGN C   5      93.761 103.118  96.8430  0.00  0.00     0.000 C
ATOM     76  C2  SGN C   5      94.393 103.536  95.5020  0.00  0.00     0.000 C
ATOM     77  C3  SGN C   5      95.410 104.666  95.7110  0.00  0.00     0.000 C
ATOM     78  C4  SGN C   5      94.839 105.782  96.5750  0.00  0.00     0.000 C
ATOM     79  C5  SGN C   5      94.285 105.192  97.8630  0.00  0.00     0.000 C
ATOM     80  O5  SGN C   5      93.237 104.237  97.5480  0.00  0.00     0.000 O
ATOM     81   O  SGN C   5      95.806 105.172  94.4390  0.00  0.00     0.000 O
ATOM     83  HD  SGN C   5      95.905 104.651  93.7540  0.00  0.00     0.000 HD
BRANCH 76 85
ATOM     83   N  SGN C   5      93.823 102.308  94.9330  0.00  0.00     0.000 N
ATOM     85  HD  SGN C   5      93.879 101.481  94.6840  0.00  0.00     0.000 HD
ATOM     85   S  SGN C   5      94.480 101.258  93.9040  0.00  0.00     0.000 S
ATOM     86   O  SGN C   5      93.585 100.181  93.6540  0.00  0.00     0.000 OA
ATOM     87   O  SGN C   5      94.930 101.997  92.7800  0.00  0.00     0.000 OA
ATOM     88   O  SGN C   5      95.613 100.811  94.8250  0.00  0.00     0.000 OA
ENDBRANCH 76 85
BRANCH 79 89
ATOM     89   C  SGN C   5      93.713 106.231  98.8070  0.00  0.00     0.000 C
ATOM     90   O  SGN C   5      93.072 105.575  99.9280  0.00  0.00     0.000 O
ATOM     91   S  SGN C   5      93.100 106.354 101.3310  0.00  0.00     0.000 S
ATOM     92   O  SGN C   5      94.477 106.691 101.5810  0.00  0.00     0.000 OA
ATOM     93   O  SGN C   5      92.266 107.519 101.1850  0.00  0.00     0.000 OA
ATOM     94   O  SGN C   5      92.570 105.389 102.2550  0.00  0.00     0.000 OA
ENDBRANCH 79 89
BRANCH 75 95
ATOM     95  O4  BDP C   6      94.769 102.550  97.5690  0.00  0.00     0.000 O
BRANCH 95 99
ATOM     96  C1  BDP C   6      94.526  99.323 100.3920  0.00  0.00     0.000 C
ATOM     97  C2  BDP C   6      93.439  99.466  99.3640  0.00  0.00     0.000 C
ATOM     98  C3  BDP C   6      93.798 100.384  98.1860  0.00  0.00     0.000 C
ATOM     99  C4  BDP C   6      94.381 101.703  98.6720  0.00  0.00     0.000 C
ATOM    100  C5  BDP C   6      95.502 101.385  99.6890  0.00  0.00     0.000 C
ATOM    101  O5  BDP C   6      94.818 100.667 100.7290  0.00  0.00     0.000 O
BRANCH 100 102
ATOM    102   C  BDP C   6      96.103 102.625 100.2990  0.00  0.00     0.000 C
ATOM    103   O  BDP C   6      95.407 103.523 100.7960  0.00  0.00     0.000 OA
ATOM    104   O  BDP C   6      97.337 102.708 100.2960  0.00  0.00     0.000 OA
ENDBRANCH 100 102
ENDBRANCH 95 99
ENDBRANCH 75 95
ENDBRANCH 74 78
ENDBRANCH 58 74
ENDBRANCH 57 61
ENDBRANCH 37 57
ENDBRANCH 36 40
ENDBRANCH 23 36
ENDBRANCH 22 26
ENDBRANCH 1 22
TORSDOF 20
ENDMDL
MODEL 73
REMARK VINA RESULT:      -0.8    107.694    113.782
ROOT
ATOM      1  C1  NGY C   1      94.597  96.934  19.3170  0.00  0.00     0.000 C
ATOM      2  C2  NGY C   1      93.219  96.805  19.9510  0.00  0.00     0.000 C
ATOM      3  C3  NGY C   1      93.240  97.350  21.3750  0.00  0.00     0.000 C
ATOM      4  C4  NGY C   1      94.341  96.642  22.1410  0.00  0.00     0.000 C
ATOM      5  C5  NGY C   1      95.674  96.918  21.4500  0.00  0.00     0.000 C
ATOM      6  O5  NGY C   1      95.616  96.362  20.1110  0.00  0.00     0.000 O
ATOM      7   O  NGY C   1      91.965  97.153  21.9690  0.00  0.00     0.000 O
ATOM      9  HD  NGY C   1      91.341  96.552  21.9550  0.00  0.00     0.000 HD
ATOM      9   O  NGY C   1      94.389  97.084  23.4890  0.00  0.00     0.000 O
ATOM     11  HD  NGY C   1      93.765  96.484  23.4740  0.00  0.00     0.000 HD
ENDROOT
BRANCH 2 13
ATOM     11   N  NGY C   1      92.358  97.343  18.9250  0.00  0.00     0.000 N
ATOM     13  HD  NGY C   1      91.637  96.900  19.1090  0.00  0.00     0.000 HD
ATOM     13   C  NGY C   1      91.092  96.946  18.7970  0.00  0.00     0.000 C
ATOM     14   O  NGY C   1      90.651  96.003  19.4560  0.00  0.00     0.000 OA
ATOM     15   C  NGY C   1      90.238  97.720  17.8400  0.00  0.00     0.000 C
ENDBRANCH 2 13
BRANCH 5 16
ATOM     16   C  NGY C   1      96.867  96.291  22.0970  0.00  0.00     0.000 C
ATOM     17   O  NGY C   1      99.166  98.076  24.3290  0.00  0.00     0.000 OA
ATOM     18   O  NGY C   1      97.648  97.317  22.7150  0.00  0.00     0.000 O
ATOM     19   S  NGY C   1      98.671  96.829  23.8030  0.00  0.00     0.000 S
ATOM     20   O  NGY C   1      99.693  96.079  23.1200  0.00  0.00     0.000 OA
ATOM     21   O  NGY C   1      97.877  96.028  24.7200  0.00  0.00     0.000 OA
ENDBRANCH 5 16
BRANCH 1 22
ATOM     22  O4  BDP C   2      94.826  98.234  19.0360  0.00  0.00     0.000 O
BRANCH 22 26
ATOM     23  C1  BDP C   2      96.474 101.175  16.6700  0.00  0.00     0.000 C
ATOM     24  C2  BDP C   2      95.603 100.174  15.9490  0.00  0.00     0.000 C
ATOM     25  C3  BDP C   2      94.788  99.399  16.9510  0.00  0.00     0.000 C
ATOM     26  C4  BDP C   2      95.696  98.793  18.0160  0.00  0.00     0.000 C
ATOM     27  C5  BDP C   2      96.649  99.856  18.5480  0.00  0.00     0.000 C
ATOM     28  O5  BDP C   2      97.441 100.473  17.5010  0.00  0.00     0.000 O
ATOM     29   O  BDP C   2      94.618 100.800  15.1270  0.00  0.00     0.000 O
ATOM     31  HD  BDP C   2      93.848 100.407  15.0760  0.00  0.00     0.000 HD
ATOM     31   O  BDP C   2      94.121  98.368  16.2330  0.00  0.00     0.000 O
ATOM     33  HD  BDP C   2      93.351  97.975  16.1830  0.00  0.00     0.000 HD
BRANCH 27 33
ATOM     33   C  BDP C   2      97.643  99.297  19.5380  0.00  0.00     0.000 C
ATOM     34   O  BDP C   2      98.285  98.244  19.3130  0.00  0.00     0.000 OA
ATOM     35   O  BDP C   2      97.792  99.877  20.6010  0.00  0.00     0.000 OA
ENDBRANCH 27 33
BRANCH 23 36
ATOM     36  O4  SGN C   3      97.161 102.026  15.8720  0.00  0.00     0.000 O
BRANCH 36 40
ATOM     37  C1  SGN C   3      98.420 105.970  15.3340  0.00  0.00     0.000 C
ATOM     38  C2  SGN C   3      99.253 105.075  16.2660  0.00  0.00     0.000 C
ATOM     39  C3  SGN C   3      98.939 103.607  16.0160  0.00  0.00     0.000 C
ATOM     40  C4  SGN C   3      97.450 103.391  16.1860  0.00  0.00     0.000 C
ATOM     41  C5  SGN C   3      96.712 104.324  15.2520  0.00  0.00     0.000 C
ATOM     42  O5  SGN C   3      97.048 105.685  15.5610  0.00  0.00     0.000 O
ATOM     43   O  SGN C   3      99.678 102.807  16.9300  0.00  0.00     0.000 O
ATOM     45  HD  SGN C   3      98.951 102.396  16.6990  0.00  0.00     0.000 HD
BRANCH 38 47
ATOM     45   N  SGN C   3      99.645 106.419  16.7250  0.00  0.00     0.000 N
ATOM     47  HD  SGN C   3      99.027 105.819  16.6400  0.00  0.00     0.000 HD
ATOM     47   S  SGN C   3     101.224 106.595  16.7780  0.00  0.00     0.000 S
ATOM     48   O  SGN C   3     101.805 105.760  17.7690  0.00  0.00     0.000 OA
ATOM     49   O  SGN C   3     101.699 106.431  15.4430  0.00  0.00     0.000 OA
ATOM     50   O  SGN C   3     101.354 107.980  17.2290  0.00  0.00     0.000 OA
ENDBRANCH 38 47
BRANCH 41 51
ATOM     51   C  SGN C   3      95.213 104.204  15.3200  0.00  0.00     0.000 C
ATOM     52   O  SGN C   3      93.093 104.153  18.3830  0.00  0.00     0.000 OA
ATOM     53   O  SGN C   3      92.621 105.059  16.2180  0.00  0.00     0.000 OA
ATOM     54   O  SGN C   3      92.929 102.695  16.5070  0.00  0.00     0.000 OA
ATOM     55   O  SGN C   3      94.812 104.277  16.6700  0.00  0.00     0.000 O
ATOM     56   S  SGN C   3      93.214 104.021  16.9710  0.00  0.00     0.000 S
ENDBRANCH 41 51
BRANCH 37 57
ATOM     57  O4  IDS C   4      98.674 105.803  14.0130  0.00  0.00     0.000 O
BRANCH 57 61
ATOM     58  C1  IDS C   4      99.846 106.942  10.5780  0.00  0.00     0.000 C
ATOM     59  C2  IDS C   4     100.751 107.148  11.7500  0.00  0.00     0.000 C
ATOM     60  C3  IDS C   4     100.000 107.594  13.0070  0.00  0.00     0.000 C
ATOM     61  C4  IDS C   4      98.613 107.002  13.2170  0.00  0.00     0.000 C
ATOM     62  C5  IDS C   4      97.928 106.732  11.8720  0.00  0.00     0.000 C
ATOM     63  O5  IDS C   4      98.795 106.071  10.9620  0.00  0.00     0.000 O
ATOM     64   O  IDS C   4      99.871 108.998  12.8860  0.00  0.00     0.000 O
ATOM     66  HD  IDS C   4      99.040 109.218  12.7800  0.00  0.00     0.000 HD
BRANCH 59 66
ATOM     66   O  IDS C   4     101.467 105.909  12.1080  0.00  0.00     0.000 O
ATOM     67   S  IDS C   4     103.028 105.875  11.7990  0.00  0.00     0.000 S
ATOM     68   O  IDS C   4     103.558 106.894  12.6730  0.00  0.00     0.000 OA
ATOM     69   O  IDS C   4     103.441 104.522  12.1160  0.00  0.00     0.000 OA
ATOM     70   O  IDS C   4     103.197 106.229  10.3980  0.00  0.00     0.000 OA
ENDBRANCH 59 66
BRANCH 62 71
ATOM     71   C  IDS C   4      96.707 105.840  11.9950  0.00  0.00     0.000 C
ATOM     72   O  IDS C   4      95.692 106.263  12.5120  0.00  0.00     0.000 OA
ATOM     73   O  IDS C   4      96.808 104.645  11.6510  0.00  0.00     0.000 OA
ENDBRANCH 62 71
BRANCH 58 74
ATOM     74  O4  SGN C   5      99.551 108.071   9.8730  0.00  0.00     0.000 O
BRANCH 74 78
ATOM     75  C1  SGN C   5      98.738 109.697   6.1130  0.00  0.00     0.000 C
ATOM     76  C2  SGN C   5      97.536 109.089   6.8600  0.00  0.00     0.000 C
ATOM     77  C3  SGN C   5      97.882 108.844   8.3350  0.00  0.00     0.000 C
ATOM     78  C4  SGN C   5      99.216 108.127   8.4860  0.00  0.00     0.000 C
ATOM     79  C5  SGN C   5     100.286 108.877   7.7070  0.00  0.00     0.000 C
ATOM     80  O5  SGN C   5      99.918 108.929   6.3040  0.00  0.00     0.000 O
ATOM     81   O  SGN C   5      96.836 108.086   8.9340  0.00  0.00     0.000 O
ATOM     83  HD  SGN C   5      96.006 108.210   8.7230  0.00  0.00     0.000 HD
BRANCH 76 85
ATOM     83   N  SGN C   5      96.732 109.499   5.7020  0.00  0.00     0.000 N
ATOM     85  HD  SGN C   5      96.181 110.034   5.3010  0.00  0.00     0.000 HD
ATOM     85   S  SGN C   5      95.239 110.101   5.6550  0.00  0.00     0.000 S
ATOM     86   O  SGN C   5      94.866 110.402   4.3160  0.00  0.00     0.000 OA
ATOM     87   O  SGN C   5      94.403 109.205   6.3720  0.00  0.00     0.000 OA
ATOM     88   O  SGN C   5      95.551 111.380   6.4270  0.00  0.00     0.000 OA
ENDBRANCH 76 85
BRANCH 79 89
ATOM     89   C  SGN C   5     101.662 108.252   7.8160  0.00  0.00     0.000 C
ATOM     90   O  SGN C   5     102.619 109.038   7.0650  0.00  0.00     0.000 O
ATOM     91   S  SGN C   5     104.125 109.064   7.6190  0.00  0.00     0.000 S
ATOM     92   O  SGN C   5     104.042 109.443   9.0050  0.00  0.00     0.000 OA
ATOM     93   O  SGN C   5     104.664 107.740   7.4410  0.00  0.00     0.000 OA
ATOM     94   O  SGN C   5     104.764 110.052   6.7920  0.00  0.00     0.000 OA
ENDBRANCH 79 89
BRANCH 75 95
ATOM     95  O4  BDP C   6      98.912 110.945   6.6420  0.00  0.00     0.000 O
BRANCH 95 99
ATOM     96  C1  BDP C   6     100.151 114.578   4.7160  0.00  0.00     0.000 C
ATOM     97  C2  BDP C   6      99.438 113.536   3.9010  0.00  0.00     0.000 C
ATOM     98  C3  BDP C   6      98.708 112.471   4.7320  0.00  0.00     0.000 C
ATOM     99  C4  BDP C   6      99.608 111.909   5.8230  0.00  0.00     0.000 C
ATOM    100  C5  BDP C   6     100.234 113.099   6.5870  0.00  0.00     0.000 C
ATOM    101  O5  BDP C   6     100.968 113.802   5.5720  0.00  0.00     0.000 O
BRANCH 100 102
ATOM    102   C  BDP C   6     101.211 112.660   7.6480  0.00  0.00     0.000 C
ATOM    103   O  BDP C   6     102.398 112.410   7.3920  0.00  0.00     0.000 OA
ATOM    104   O  BDP C   6     100.779 112.570   8.8030  0.00  0.00     0.000 OA
ENDBRANCH 100 102
ENDBRANCH 95 99
ENDBRANCH 75 95
ENDBRANCH 74 78
ENDBRANCH 58 74
ENDBRANCH 57 61
ENDBRANCH 37 57
ENDBRANCH 36 40
ENDBRANCH 23 36
ENDBRANCH 22 26
ENDBRANCH 1 22
TORSDOF 20
ENDMDL
MODEL 74
REMARK VINA RESULT:      -0.8     40.291     48.039
ROOT
ATOM      1  C1  NGY C   1      61.976  20.658  23.0070  0.00  0.00     0.000 C
ATOM      2  C2  NGY C   1      60.494  20.935  22.7980  0.00  0.00     0.000 C
ATOM      3  C3  NGY C   1      59.797  19.696  22.2450  0.00  0.00     0.000 C
ATOM      4  C4  NGY C   1      60.528  19.262  20.9880  0.00  0.00     0.000 C
ATOM      5  C5  NGY C   1      61.974  18.937  21.3500  0.00  0.00     0.000 C
ATOM      6  O5  NGY C   1      62.601  20.147  21.8480  0.00  0.00     0.000 O
ATOM      7   O  NGY C   1      58.434  20.001  21.9910  0.00  0.00     0.000 O
ATOM      9  HD  NGY C   1      57.974  20.678  21.7070  0.00  0.00     0.000 HD
ATOM      9   O  NGY C   1      59.904  18.127  20.4040  0.00  0.00     0.000 O
ATOM     11  HD  NGY C   1      59.444  18.804  20.1200  0.00  0.00     0.000 HD
ENDROOT
BRANCH 2 13
ATOM     11   N  NGY C   1      59.767  21.263  24.0020  0.00  0.00     0.000 N
ATOM     13  HD  NGY C   1      59.468  22.042  23.7710  0.00  0.00     0.000 HD
ATOM     13   C  NGY C   1      59.112  22.416  24.1300  0.00  0.00     0.000 C
ATOM     14   O  NGY C   1      59.218  23.306  23.2850  0.00  0.00     0.000 OA
ATOM     15   C  NGY C   1      58.227  22.557  25.3310  0.00  0.00     0.000 C
ENDBRANCH 2 13
BRANCH 5 16
ATOM     16   C  NGY C   1      62.827  18.481  20.2100  0.00  0.00     0.000 C
ATOM     17   O  NGY C   1      65.929  20.145  19.1750  0.00  0.00     0.000 OA
ATOM     18   O  NGY C   1      63.824  19.474  19.9550  0.00  0.00     0.000 O
ATOM     19   S  NGY C   1      65.065  18.993  19.1190  0.00  0.00     0.000 S
ATOM     20   O  NGY C   1      64.598  18.722  17.7840  0.00  0.00     0.000 OA
ATOM     21   O  NGY C   1      65.542  17.811  19.8180  0.00  0.00     0.000 OA
ENDBRANCH 5 16
BRANCH 1 22
ATOM     22  O4  BDP C   2      62.121  19.847  24.0750  0.00  0.00     0.000 O
BRANCH 22 26
ATOM     23  C1  BDP C   2      64.234  18.517  27.3510  0.00  0.00     0.000 C
ATOM     24  C2  BDP C   2      63.822  19.970  27.3890  0.00  0.00     0.000 C
ATOM     25  C3  BDP C   2      62.769  20.224  26.3430  0.00  0.00     0.000 C
ATOM     26  C4  BDP C   2      63.253  19.742  24.9790  0.00  0.00     0.000 C
ATOM     27  C5  BDP C   2      63.807  18.328  25.0970  0.00  0.00     0.000 C
ATOM     28  O5  BDP C   2      64.872  18.224  26.0760  0.00  0.00     0.000 O
ATOM     29   O  BDP C   2      63.173  20.319  28.6120  0.00  0.00     0.000 O
ATOM     31  HD  BDP C   2      62.529  20.895  28.5580  0.00  0.00     0.000 HD
ATOM     31   O  BDP C   2      62.546  21.628  26.3140  0.00  0.00     0.000 O
ATOM     33  HD  BDP C   2      61.902  22.205  26.2600  0.00  0.00     0.000 HD
BRANCH 27 33
ATOM     33   C  BDP C   2      64.393  17.828  23.7990  0.00  0.00     0.000 C
ATOM     34   O  BDP C   2      65.251  18.481  23.1600  0.00  0.00     0.000 OA
ATOM     35   O  BDP C   2      63.986  16.769  23.3480  0.00  0.00     0.000 OA
ENDBRANCH 27 33
BRANCH 23 36
ATOM     36  O4  SGN C   3      65.083  18.129  28.3320  0.00  0.00     0.000 O
BRANCH 36 40
ATOM     37  C1  SGN C   3      66.014  15.126  31.0770  0.00  0.00     0.000 C
ATOM     38  C2  SGN C   3      66.508  14.950  29.6320  0.00  0.00     0.000 C
ATOM     39  C3  SGN C   3      66.479  16.281  28.8940  0.00  0.00     0.000 C
ATOM     40  C4  SGN C   3      65.076  16.845  28.9610  0.00  0.00     0.000 C
ATOM     41  C5  SGN C   3      64.665  16.961  30.4120  0.00  0.00     0.000 C
ATOM     42  O5  SGN C   3      64.703  15.666  31.0320  0.00  0.00     0.000 O
ATOM     43   O  SGN C   3      66.883  16.078  27.5460  0.00  0.00     0.000 O
ATOM     45  HD  SGN C   3      66.355  16.763  27.5960  0.00  0.00     0.000 HD
BRANCH 38 47
ATOM     45   N  SGN C   3      66.549  13.569  30.1440  0.00  0.00     0.000 N
ATOM     47  HD  SGN C   3      66.079  14.267  29.9380  0.00  0.00     0.000 HD
ATOM     47   S  SGN C   3      67.944  12.864  29.8500  0.00  0.00     0.000 S
ATOM     48   O  SGN C   3      68.145  12.673  28.4580  0.00  0.00     0.000 OA
ATOM     49   O  SGN C   3      68.936  13.619  30.5430  0.00  0.00     0.000 OA
ATOM     50   O  SGN C   3      67.746  11.549  30.4570  0.00  0.00     0.000 OA
ENDBRANCH 38 47
BRANCH 41 51
ATOM     51   C  SGN C   3      63.282  17.517  30.6170  0.00  0.00     0.000 C
ATOM     52   O  SGN C   3      60.145  16.447  28.9170  0.00  0.00     0.000 OA
ATOM     53   O  SGN C   3      60.472  17.243  31.1510  0.00  0.00     0.000 OA
ATOM     54   O  SGN C   3      60.887  18.682  29.2730  0.00  0.00     0.000 OA
ATOM     55   O  SGN C   3      62.376  16.795  29.8130  0.00  0.00     0.000 O
ATOM     56   S  SGN C   3      60.825  17.345  29.7860  0.00  0.00     0.000 S
ENDBRANCH 41 51
BRANCH 37 57
ATOM     57  O4  IDS C   4      66.782  15.939  31.8430  0.00  0.00     0.000 O
BRANCH 57 61
ATOM     58  C1  IDS C   4      69.021  16.733  34.8140  0.00  0.00     0.000 C
ATOM     59  C2  IDS C   4      69.352  15.549  33.9610  0.00  0.00     0.000 C
ATOM     60  C3  IDS C   4      68.110  14.767  33.5280  0.00  0.00     0.000 C
ATOM     61  C4  IDS C   4      66.858  15.583  33.2370  0.00  0.00     0.000 C
ATOM     62  C5  IDS C   4      66.805  16.832  34.1250  0.00  0.00     0.000 C
ATOM     63  O5  IDS C   4      68.049  17.518  34.1450  0.00  0.00     0.000 O
ATOM     64   O  IDS C   4      67.829  13.889  34.6020  0.00  0.00     0.000 O
ATOM     66  HD  IDS C   4      67.084  14.107  34.9850  0.00  0.00     0.000 HD
BRANCH 59 66
ATOM     66   O  IDS C   4      70.048  15.949  32.7230  0.00  0.00     0.000 O
ATOM     67   S  IDS C   4      71.578  15.530  32.6010  0.00  0.00     0.000 S
ATOM     68   O  IDS C   4      71.521  14.088  32.5640  0.00  0.00     0.000 OA
ATOM     69   O  IDS C   4      72.039  16.154  31.3760  0.00  0.00     0.000 OA
ATOM     70   O  IDS C   4      72.253  16.010  33.7960  0.00  0.00     0.000 OA
ENDBRANCH 59 66
BRANCH 62 71
ATOM     71   C  IDS C   4      65.784  17.851  33.6570  0.00  0.00     0.000 C
ATOM     72   O  IDS C   4      66.150  18.893  33.1490  0.00  0.00     0.000 OA
ATOM     73   O  IDS C   4      64.579  17.640  33.9010  0.00  0.00     0.000 OA
ENDBRANCH 62 71
BRANCH 58 74
ATOM     74  O4  SGN C   5      68.860  16.461  36.1400  0.00  0.00     0.000 O
BRANCH 74 78
ATOM     75  C1  SGN C   5      69.679  17.639  40.0620  0.00  0.00     0.000 C
ATOM     76  C2  SGN C   5      68.610  18.462  39.3190  0.00  0.00     0.000 C
ATOM     77  C3  SGN C   5      68.158  17.738  38.0430  0.00  0.00     0.000 C
ATOM     78  C4  SGN C   5      69.345  17.256  37.2210  0.00  0.00     0.000 C
ATOM     79  C5  SGN C   5      70.279  16.443  38.1060  0.00  0.00     0.000 C
ATOM     80  O5  SGN C   5      70.750  17.271  39.2030  0.00  0.00     0.000 O
ATOM     81   O  SGN C   5      67.343  18.618  37.2760  0.00  0.00     0.000 O
ATOM     83  HD  SGN C   5      66.792  19.171  37.6520  0.00  0.00     0.000 HD
BRANCH 76 85
ATOM     83   N  SGN C   5      68.487  19.263  40.5430  0.00  0.00     0.000 N
ATOM     85  HD  SGN C   5      68.100  19.468  41.2900  0.00  0.00     0.000 HD
ATOM     85   S  SGN C   5      67.166  19.848  41.2540  0.00  0.00     0.000 S
ATOM     86   O  SGN C   5      67.508  20.533  42.4520  0.00  0.00     0.000 OA
ATOM     87   O  SGN C   5      66.452  20.583  40.2720  0.00  0.00     0.000 OA
ATOM     88   O  SGN C   5      66.535  18.494  41.5700  0.00  0.00     0.000 OA
ENDBRANCH 76 85
BRANCH 79 89
ATOM     89   C  SGN C   5      71.485  15.897  37.3700  0.00  0.00     0.000 C
ATOM     90   O  SGN C   5      71.882  14.631  37.9520  0.00  0.00     0.000 O
ATOM     91   S  SGN C   5      72.545  13.557  36.9600  0.00  0.00     0.000 S
ATOM     92   O  SGN C   5      71.637  13.414  35.8520  0.00  0.00     0.000 OA
ATOM     93   O  SGN C   5      73.824  14.085  36.5590  0.00  0.00     0.000 OA
ATOM     94   O  SGN C   5      72.647  12.376  37.7720  0.00  0.00     0.000 OA
ENDBRANCH 79 89
BRANCH 75 95
ATOM     95  O4  BDP C   6      69.040  16.515  40.5070  0.00  0.00     0.000 O
BRANCH 95 99
ATOM     96  C1  BDP C   6      69.911  14.263  44.0590  0.00  0.00     0.000 C
ATOM     97  C2  BDP C   6      70.455  15.659  43.9380  0.00  0.00     0.000 C
ATOM     98  C3  BDP C   6      69.790  16.506  42.8420  0.00  0.00     0.000 C
ATOM     99  C4  BDP C   6      69.712  15.745  41.5270  0.00  0.00     0.000 C
ATOM    100  C5  BDP C   6      69.102  14.353  41.8150  0.00  0.00     0.000 C
ATOM    101  O5  BDP C   6      70.031  13.764  42.7400  0.00  0.00     0.000 O
BRANCH 100 102
ATOM    102   C  BDP C   6      69.048  13.476  40.5900  0.00  0.00     0.000 C
ATOM    103   O  BDP C   6      68.002  13.297  39.9500  0.00  0.00     0.000 OA
ATOM    104   O  BDP C   6      70.107  12.946  40.2350  0.00  0.00     0.000 OA
ENDBRANCH 100 102
ENDBRANCH 95 99
ENDBRANCH 75 95
ENDBRANCH 74 78
ENDBRANCH 58 74
ENDBRANCH 57 61
ENDBRANCH 37 57
ENDBRANCH 36 40
ENDBRANCH 23 36
ENDBRANCH 22 26
ENDBRANCH 1 22
TORSDOF 20
ENDMDL
MODEL 75
REMARK VINA RESULT:      -0.8     51.180     55.893
ROOT
ATOM      1  C1  NGY C   1      11.184  52.094  84.6220  0.00  0.00     0.000 C
ATOM      2  C2  NGY C   1      10.310  51.492  85.7130  0.00  0.00     0.000 C
ATOM      3  C3  NGY C   1       8.973  52.224  85.7830  0.00  0.00     0.000 C
ATOM      4  C4  NGY C   1       9.250  53.704  85.9600  0.00  0.00     0.000 C
ATOM      5  C5  NGY C   1      10.060  54.197  84.7640  0.00  0.00     0.000 C
ATOM      6  O5  NGY C   1      11.329  53.492  84.7520  0.00  0.00     0.000 O
ATOM      7   O  NGY C   1       8.206  51.692  86.8530  0.00  0.00     0.000 O
ATOM      9  HD  NGY C   1       8.350  51.386  87.6500  0.00  0.00     0.000 HD
ATOM      9   O  NGY C   1       8.039  54.439  86.0660  0.00  0.00     0.000 O
ATOM     11  HD  NGY C   1       8.184  54.133  86.8630  0.00  0.00     0.000 HD
ENDROOT
BRANCH 2 13
ATOM     11   N  NGY C   1      10.430  50.078  85.4430  0.00  0.00     0.000 N
ATOM     13  HD  NGY C   1      10.281  49.776  86.2410  0.00  0.00     0.000 HD
ATOM     13   C  NGY C   1      10.278  49.169  86.4050  0.00  0.00     0.000 C
ATOM     14   O  NGY C   1      10.172  49.502  87.5860  0.00  0.00     0.000 OA
ATOM     15   C  NGY C   1      10.217  47.736  85.9710  0.00  0.00     0.000 C
ENDBRANCH 2 13
BRANCH 5 16
ATOM     16   C  NGY C   1      10.407  55.652  84.7880  0.00  0.00     0.000 C
ATOM     17   O  NGY C   1       8.717  58.195  82.7550  0.00  0.00     0.000 OA
ATOM     18   O  NGY C   1       9.707  56.309  83.7270  0.00  0.00     0.000 O
ATOM     19   S  NGY C   1       9.584  57.869  83.8580  0.00  0.00     0.000 S
ATOM     20   O  NGY C   1      10.906  58.415  83.6950  0.00  0.00     0.000 OA
ATOM     21   O  NGY C   1       9.027  58.083  85.1840  0.00  0.00     0.000 OA
ENDBRANCH 5 16
BRANCH 1 22
ATOM     22  O4  BDP C   2      10.689  51.733  83.4190  0.00  0.00     0.000 O
BRANCH 22 26
ATOM     23  C1  BDP C   2      11.234  50.677  79.4760  0.00  0.00     0.000 C
ATOM     24  C2  BDP C   2      12.081  49.923  80.4730  0.00  0.00     0.000 C
ATOM     25  C3  BDP C   2      11.535  50.133  81.8610  0.00  0.00     0.000 C
ATOM     26  C4  BDP C   2      11.393  51.623  82.1540  0.00  0.00     0.000 C
ATOM     27  C5  BDP C   2      10.676  52.310  80.9990  0.00  0.00     0.000 C
ATOM     28  O5  BDP C   2      11.341  52.107  79.7260  0.00  0.00     0.000 O
ATOM     29   O  BDP C   2      12.007  48.509  80.2920  0.00  0.00     0.000 O
ATOM     31  HD  BDP C   2      12.030  48.025  81.0090  0.00  0.00     0.000 HD
ATOM     31   O  BDP C   2      12.462  49.544  82.7640  0.00  0.00     0.000 O
ATOM     33  HD  BDP C   2      12.486  49.059  83.4810  0.00  0.00     0.000 HD
BRANCH 27 33
ATOM     33   C  BDP C   2      10.589  53.807  81.1820  0.00  0.00     0.000 C
ATOM     34   O  BDP C   2       9.531  54.443  80.9650  0.00  0.00     0.000 OA
ATOM     35   O  BDP C   2      11.595  54.409  81.5180  0.00  0.00     0.000 OA
ENDBRANCH 27 33
BRANCH 23 36
ATOM     36  O4  SGN C   3      11.544  50.465  78.1750  0.00  0.00     0.000 O
BRANCH 36 40
ATOM     37  C1  SGN C   3      10.025  49.877  74.3310  0.00  0.00     0.000 C
ATOM     38  C2  SGN C   3      10.106  51.320  74.8540  0.00  0.00     0.000 C
ATOM     39  C3  SGN C   3      11.056  51.405  76.0390  0.00  0.00     0.000 C
ATOM     40  C4  SGN C   3      10.598  50.430  77.1030  0.00  0.00     0.000 C
ATOM     41  C5  SGN C   3      10.525  49.046  76.4980  0.00  0.00     0.000 C
ATOM     42  O5  SGN C   3       9.599  49.045  75.3990  0.00  0.00     0.000 O
ATOM     43   O  SGN C   3      11.066  52.736  76.5380  0.00  0.00     0.000 O
ATOM     45  HD  SGN C   3      11.257  52.181  77.1750  0.00  0.00     0.000 HD
BRANCH 38 47
ATOM     45   N  SGN C   3       9.115  51.428  73.7680  0.00  0.00     0.000 N
ATOM     47  HD  SGN C   3       9.334  51.097  74.5380  0.00  0.00     0.000 HD
ATOM     47   S  SGN C   3       9.438  52.633  72.7830  0.00  0.00     0.000 S
ATOM     48   O  SGN C   3       9.302  53.887  73.4360  0.00  0.00     0.000 OA
ATOM     49   O  SGN C   3      10.706  52.351  72.1940  0.00  0.00     0.000 OA
ATOM     50   O  SGN C   3       8.354  52.519  71.8090  0.00  0.00     0.000 OA
ENDBRANCH 38 47
BRANCH 41 51
ATOM     51   C  SGN C   3      10.083  47.976  77.4590  0.00  0.00     0.000 C
ATOM     52   O  SGN C   3       7.141  48.072  79.7430  0.00  0.00     0.000 OA
ATOM     53   O  SGN C   3       8.117  46.214  78.5910  0.00  0.00     0.000 OA
ATOM     54   O  SGN C   3       9.353  47.378  80.2890  0.00  0.00     0.000 OA
ATOM     55   O  SGN C   3       8.895  48.396  78.0930  0.00  0.00     0.000 O
ATOM     56   S  SGN C   3       8.325  47.423  79.2920  0.00  0.00     0.000 S
ENDBRANCH 41 51
BRANCH 37 57
ATOM     57  O4  IDS C   4      11.192  49.383  73.8490  0.00  0.00     0.000 O
BRANCH 57 61
ATOM     58  C1  IDS C   4      13.405  47.934  71.1160  0.00  0.00     0.000 C
ATOM     59  C2  IDS C   4      12.607  49.164  70.8170  0.00  0.00     0.000 C
ATOM     60  C3  IDS C   4      11.201  49.117  71.4190  0.00  0.00     0.000 C
ATOM     61  C4  IDS C   4      11.062  48.435  72.7730  0.00  0.00     0.000 C
ATOM     62  C5  IDS C   4      12.082  47.300  72.9170  0.00  0.00     0.000 C
ATOM     63  O5  IDS C   4      13.382  47.706  72.5140  0.00  0.00     0.000 O
ATOM     64   O  IDS C   4      10.417  48.406  70.4790  0.00  0.00     0.000 O
ATOM     66  HD  IDS C   4      10.164  47.646  70.8080  0.00  0.00     0.000 HD
BRANCH 59 66
ATOM     66   O  IDS C   4      13.253  50.375  71.3580  0.00  0.00     0.000 O
ATOM     67   S  IDS C   4      13.872  51.385  70.2950  0.00  0.00     0.000 S
ATOM     68   O  IDS C   4      12.712  51.854  69.5750  0.00  0.00     0.000 OA
ATOM     69   O  IDS C   4      14.547  52.393  71.0880  0.00  0.00     0.000 OA
ATOM     70   O  IDS C   4      14.761  50.617  69.4380  0.00  0.00     0.000 OA
ENDBRANCH 59 66
BRANCH 62 71
ATOM     71   C  IDS C   4      12.230  46.811  74.3450  0.00  0.00     0.000 C
ATOM     72   O  IDS C   4      13.220  47.100  74.9890  0.00  0.00     0.000 OA
ATOM     73   O  IDS C   4      11.371  46.027  74.7960  0.00  0.00     0.000 OA
ENDBRANCH 62 71
BRANCH 58 74
ATOM     74  O4  SGN C   5      13.191  46.889  70.2660  0.00  0.00     0.000 O
BRANCH 74 78
ATOM     75  C1  SGN C   5      14.911  43.791  68.0560  0.00  0.00     0.000 C
ATOM     76  C2  SGN C   5      14.798  43.556  69.5740  0.00  0.00     0.000 C
ATOM     77  C3  SGN C   5      13.859  44.587  70.2140  0.00  0.00     0.000 C
ATOM     78  C4  SGN C   5      14.191  46.003  69.7630  0.00  0.00     0.000 C
ATOM     79  C5  SGN C   5      14.236  46.055  68.2430  0.00  0.00     0.000 C
ATOM     80  O5  SGN C   5      15.253  45.138  67.7570  0.00  0.00     0.000 O
ATOM     81   O  SGN C   5      13.952  44.479  71.6310  0.00  0.00     0.000 O
ATOM     83  HD  SGN C   5      14.048  43.713  72.0220  0.00  0.00     0.000 HD
BRANCH 76 85
ATOM     83   N  SGN C   5      14.828  42.156  69.1310  0.00  0.00     0.000 N
ATOM     85  HD  SGN C   5      14.641  41.317  69.2300  0.00  0.00     0.000 HD
ATOM     85   S  SGN C   5      15.077  40.817  69.9900  0.00  0.00     0.000 S
ATOM     86   O  SGN C   5      14.974  39.667  69.1600  0.00  0.00     0.000 OA
ATOM     87   O  SGN C   5      16.293  40.994  70.7000  0.00  0.00     0.000 OA
ATOM     88   O  SGN C   5      13.839  40.955  70.8740  0.00  0.00     0.000 OA
ENDBRANCH 76 85
BRANCH 79 89
ATOM     89   C  SGN C   5      14.537  47.435  67.6940  0.00  0.00     0.000 C
ATOM     90   O  SGN C   5      13.906  47.595  66.4010  0.00  0.00     0.000 O
ATOM     91   S  SGN C   5      13.430  49.078  66.0100  0.00  0.00     0.000 S
ATOM     92   O  SGN C   5      12.615  49.544  67.1020  0.00  0.00     0.000 OA
ATOM     93   O  SGN C   5      14.619  49.871  65.8320  0.00  0.00     0.000 OA
ATOM     94   O  SGN C   5      12.694  48.878  64.7910  0.00  0.00     0.000 OA
ENDBRANCH 79 89
BRANCH 75 95
ATOM     95  O4  BDP C   6      13.678  43.506  67.5420  0.00  0.00     0.000 O
BRANCH 95 99
ATOM     96  C1  BDP C   6      12.703  42.267  63.5470  0.00  0.00     0.000 C
ATOM     97  C2  BDP C   6      14.115  42.094  64.0320  0.00  0.00     0.000 C
ATOM     98  C3  BDP C   6      14.279  42.199  65.5560  0.00  0.00     0.000 C
ATOM     99  C4  BDP C   6      13.572  43.430  66.1040  0.00  0.00     0.000 C
ATOM    100  C5  BDP C   6      12.131  43.443  65.5440  0.00  0.00     0.000 C
ATOM    101  O5  BDP C   6      12.323  43.504  64.1210  0.00  0.00     0.000 O
BRANCH 100 102
ATOM    102   C  BDP C   6      11.356  44.667  65.9600  0.00  0.00     0.000 C
ATOM    103   O  BDP C   6      10.599  44.669  66.9420  0.00  0.00     0.000 OA
ATOM    104   O  BDP C   6      11.517  45.688  65.2820  0.00  0.00     0.000 OA
ENDBRANCH 100 102
ENDBRANCH 95 99
ENDBRANCH 75 95
ENDBRANCH 74 78
ENDBRANCH 58 74
ENDBRANCH 57 61
ENDBRANCH 37 57
ENDBRANCH 36 40
ENDBRANCH 23 36
ENDBRANCH 22 26
ENDBRANCH 1 22
TORSDOF 20
ENDMDL
MODEL 76
REMARK VINA RESULT:      -0.8     81.052     86.670
ROOT
ATOM      1  C1  NGY C   1      72.811  69.214  81.6820  0.00  0.00     0.000 C
ATOM      2  C2  NGY C   1      73.623  69.592  82.9130  0.00  0.00     0.000 C
ATOM      3  C3  NGY C   1      74.605  68.478  83.2610  0.00  0.00     0.000 C
ATOM      4  C4  NGY C   1      73.825  67.186  83.4080  0.00  0.00     0.000 C
ATOM      5  C5  NGY C   1      73.128  66.881  82.0840  0.00  0.00     0.000 C
ATOM      6  O5  NGY C   1      72.190  67.953  81.8070  0.00  0.00     0.000 O
ATOM      7   O  NGY C   1      75.297  68.822  84.4520  0.00  0.00     0.000 O
ATOM      9  HD  NGY C   1      75.121  69.224  85.1990  0.00  0.00     0.000 HD
ATOM      9   O  NGY C   1      74.683  66.112  83.7660  0.00  0.00     0.000 O
ATOM     11  HD  NGY C   1      74.506  66.514  84.5130  0.00  0.00     0.000 HD
ENDROOT
BRANCH 2 13
ATOM     11   N  NGY C   1      74.051  70.935  82.5980  0.00  0.00     0.000 N
ATOM     13  HD  NGY C   1      74.122  71.245  83.4030  0.00  0.00     0.000 HD
ATOM     13   C  NGY C   1      74.297  71.831  83.5520  0.00  0.00     0.000 C
ATOM     14   O  NGY C   1      74.031  71.594  84.7320  0.00  0.00     0.000 OA
ATOM     15   C  NGY C   1      74.933  73.117  83.1200  0.00  0.00     0.000 C
ENDBRANCH 2 13
BRANCH 5 16
ATOM     16   C  NGY C   1      72.321  65.623  82.0670  0.00  0.00     0.000 C
ATOM     17   O  NGY C   1      69.000  65.339  80.5330  0.00  0.00     0.000 OA
ATOM     18   O  NGY C   1      71.007  65.926  81.5880  0.00  0.00     0.000 O
ATOM     19   S  NGY C   1      70.169  64.698  81.0790  0.00  0.00     0.000 S
ATOM     20   O  NGY C   1      69.863  63.887  82.2270  0.00  0.00     0.000 OA
ATOM     21   O  NGY C   1      71.035  64.038  80.1160  0.00  0.00     0.000 OA
ENDBRANCH 5 16
BRANCH 1 22
ATOM     22  O4  BDP C   2      73.607  69.295  80.5950  0.00  0.00     0.000 O
BRANCH 22 26
ATOM     23  C1  BDP C   2      74.180  70.105  76.5970  0.00  0.00     0.000 C
ATOM     24  C2  BDP C   2      73.523  71.206  77.3960  0.00  0.00     0.000 C
ATOM     25  C3  BDP C   2      73.706  70.941  78.8670  0.00  0.00     0.000 C
ATOM     26  C4  BDP C   2      73.224  69.537  79.2150  0.00  0.00     0.000 C
ATOM     27  C5  BDP C   2      73.814  68.531  78.2360  0.00  0.00     0.000 C
ATOM     28  O5  BDP C   2      73.501  68.844  76.8540  0.00  0.00     0.000 O
ATOM     29   O  BDP C   2      74.155  72.471  77.2000  0.00  0.00     0.000 O
ATOM     31  HD  BDP C   2      74.194  72.995  77.8890  0.00  0.00     0.000 HD
ATOM     31   O  BDP C   2      72.930  71.910  79.5610  0.00  0.00     0.000 O
ATOM     33  HD  BDP C   2      72.968  72.434  80.2490  0.00  0.00     0.000 HD
BRANCH 27 33
ATOM     33   C  BDP C   2      73.298  67.130  78.4660  0.00  0.00     0.000 C
ATOM     34   O  BDP C   2      72.077  66.888  78.6220  0.00  0.00     0.000 OA
ATOM     35   O  BDP C   2      74.105  66.218  78.5340  0.00  0.00     0.000 OA
ENDBRANCH 27 33
BRANCH 23 36
ATOM     36  O4  SGN C   3      74.200  70.294  75.2570  0.00  0.00     0.000 O
BRANCH 36 40
ATOM     37  C1  SGN C   3      76.471  69.942  71.7720  0.00  0.00     0.000 C
ATOM     38  C2  SGN C   3      75.747  68.685  72.2820  0.00  0.00     0.000 C
ATOM     39  C3  SGN C   3      74.648  69.066  73.2640  0.00  0.00     0.000 C
ATOM     40  C4  SGN C   3      75.256  69.879  74.3870  0.00  0.00     0.000 C
ATOM     41  C5  SGN C   3      75.964  71.077  73.7930  0.00  0.00     0.000 C
ATOM     42  O5  SGN C   3      76.993  70.636  72.8940  0.00  0.00     0.000 O
ATOM     43   O  SGN C   3      74.036  67.884  73.7640  0.00  0.00     0.000 O
ATOM     45  HD  SGN C   3      73.968  68.521  74.3470  0.00  0.00     0.000 HD
BRANCH 38 47
ATOM     45   N  SGN C   3      76.788  68.130  71.3990  0.00  0.00     0.000 N
ATOM     47  HD  SGN C   3      76.586  68.582  72.1100  0.00  0.00     0.000 HD
ATOM     47   S  SGN C   3      76.202  67.050  70.3910  0.00  0.00     0.000 S
ATOM     48   O  SGN C   3      75.746  65.894  71.0780  0.00  0.00     0.000 OA
ATOM     49   O  SGN C   3      75.249  67.728  69.5740  0.00  0.00     0.000 OA
ATOM     50   O  SGN C   3      77.394  66.676  69.6310  0.00  0.00     0.000 OA
ENDBRANCH 38 47
BRANCH 41 51
ATOM     51   C  SGN C   3      76.611  71.975  74.8120  0.00  0.00     0.000 C
ATOM     52   O  SGN C   3      78.809  70.958  77.6430  0.00  0.00     0.000 OA
ATOM     53   O  SGN C   3      78.875  72.937  76.2970  0.00  0.00     0.000 OA
ATOM     54   O  SGN C   3      76.995  72.499  77.7240  0.00  0.00     0.000 OA
ATOM     55   O  SGN C   3      77.401  71.189  75.6770  0.00  0.00     0.000 O
ATOM     56   S  SGN C   3      78.082  71.970  76.9550  0.00  0.00     0.000 S
ENDBRANCH 41 51
BRANCH 37 57
ATOM     57  O4  IDS C   4      75.690  70.798  71.0690  0.00  0.00     0.000 O
BRANCH 57 61
ATOM     58  C1  IDS C   4      74.660  72.708  67.9440  0.00  0.00     0.000 C
ATOM     59  C2  IDS C   4      74.885  71.233  67.8430  0.00  0.00     0.000 C
ATOM     60  C3  IDS C   4      76.092  70.761  68.6580  0.00  0.00     0.000 C
ATOM     61  C4  IDS C   4      76.343  71.476  69.9790  0.00  0.00     0.000 C
ATOM     62  C5  IDS C   4      75.897  72.940  69.8970  0.00  0.00     0.000 C
ATOM     63  O5  IDS C   4      74.608  73.067  69.3140  0.00  0.00     0.000 O
ATOM     64   O  IDS C   4      77.213  70.968  67.8190  0.00  0.00     0.000 O
ATOM     66  HD  IDS C   4      77.724  71.587  68.1430  0.00  0.00     0.000 HD
BRANCH 59 66
ATOM     66   O  IDS C   4      73.723  70.471  68.3370  0.00  0.00     0.000 O
ATOM     67   S  IDS C   4      72.868  69.690  67.2460  0.00  0.00     0.000 S
ATOM     68   O  IDS C   4      73.795  68.701  66.7490  0.00  0.00     0.000 OA
ATOM     69   O  IDS C   4      71.735  69.153  67.9730  0.00  0.00     0.000 OA
ATOM     70   O  IDS C   4      72.505  70.650  66.2150  0.00  0.00     0.000 OA
ENDBRANCH 59 66
BRANCH 62 71
ATOM     71   C  IDS C   4      75.799  73.609  71.2550  0.00  0.00     0.000 C
ATOM     72   O  IDS C   4      76.809  73.903  71.8650  0.00  0.00     0.000 OA
ATOM     73   O  IDS C   4      74.671  73.750  71.7680  0.00  0.00     0.000 OA
ENDBRANCH 62 71
BRANCH 58 74
ATOM     74  O4  SGN C   5      75.402  73.463  67.0850  0.00  0.00     0.000 O
BRANCH 74 78
ATOM     75  C1  SGN C   5      75.481  76.770  64.5350  0.00  0.00     0.000 C
ATOM     76  C2  SGN C   5      75.551  77.078  66.0430  0.00  0.00     0.000 C
ATOM     77  C3  SGN C   5      75.858  75.805  66.8420  0.00  0.00     0.000 C
ATOM     78  C4  SGN C   5      74.963  74.648  66.4210  0.00  0.00     0.000 C
ATOM     79  C5  SGN C   5      75.036  74.473  64.9110  0.00  0.00     0.000 C
ATOM     80  O5  SGN C   5      74.594  75.693  64.2600  0.00  0.00     0.000 O
ATOM     81   O  SGN C   5      75.698  76.081  68.2300  0.00  0.00     0.000 O
ATOM     83  HD  SGN C   5      75.925  76.845  68.5700  0.00  0.00     0.000 HD
BRANCH 76 85
ATOM     83   N  SGN C   5      75.657  78.483  65.6320  0.00  0.00     0.000 N
ATOM     85  HD  SGN C   5      76.108  79.210  65.4950  0.00  0.00     0.000 HD
ATOM     85   S  SGN C   5      76.509  79.680  66.2920  0.00  0.00     0.000 S
ATOM     86   O  SGN C   5      76.354  80.875  65.5380  0.00  0.00     0.000 OA
ATOM     87   O  SGN C   5      76.158  79.734  67.6670  0.00  0.00     0.000 OA
ATOM     88   O  SGN C   5      77.883  79.063  66.0450  0.00  0.00     0.000 OA
ENDBRANCH 76 85
BRANCH 79 89
ATOM     89   C  SGN C   5      74.193  73.325  64.3950  0.00  0.00     0.000 C
ATOM     90   O  SGN C   5      73.706  73.634  63.0660  0.00  0.00     0.000 O
ATOM     91   S  SGN C   5      73.496  72.394  62.0690  0.00  0.00     0.000 S
ATOM     92   O  SGN C   5      74.735  71.662  62.0640  0.00  0.00     0.000 OA
ATOM     93   O  SGN C   5      72.399  71.617  62.5850  0.00  0.00     0.000 OA
ATOM     94   O  SGN C   5      73.200  73.027  60.8120  0.00  0.00     0.000 OA
ENDBRANCH 79 89
BRANCH 75 95
ATOM     95  O4  BDP C   6      76.750  76.424  64.1660  0.00  0.00     0.000 O
BRANCH 95 99
ATOM     96  C1  BDP C   6      78.689  77.115  60.3970  0.00  0.00     0.000 C
ATOM     97  C2  BDP C   6      77.495  77.953  60.7580  0.00  0.00     0.000 C
ATOM     98  C3  BDP C   6      77.115  77.906  62.2460  0.00  0.00     0.000 C
ATOM     99  C4  BDP C   6      77.055  76.473  62.7560  0.00  0.00     0.000 C
ATOM    100  C5  BDP C   6      78.363  75.762  62.3350  0.00  0.00     0.000 C
ATOM    101  O5  BDP C   6      78.341  75.839  60.9010  0.00  0.00     0.000 O
BRANCH 100 102
ATOM    102   C  BDP C   6      78.382  74.305  62.7220  0.00  0.00     0.000 C
ATOM    103   O  BDP C   6      79.351  73.784  63.2910  0.00  0.00     0.000 OA
ATOM    104   O  BDP C   6      77.372  73.643  62.4550  0.00  0.00     0.000 OA
ENDBRANCH 100 102
ENDBRANCH 95 99
ENDBRANCH 75 95
ENDBRANCH 74 78
ENDBRANCH 58 74
ENDBRANCH 57 61
ENDBRANCH 37 57
ENDBRANCH 36 40
ENDBRANCH 23 36
ENDBRANCH 22 26
ENDBRANCH 1 22
TORSDOF 20
ENDMDL
MODEL 77
REMARK VINA RESULT:      -0.8     67.249     70.647
ROOT
ATOM      1  C1  NGY C   1      37.572  69.166  62.7880  0.00  0.00     0.000 C
ATOM      2  C2  NGY C   1      38.561  68.037  62.5310  0.00  0.00     0.000 C
ATOM      3  C3  NGY C   1      39.245  68.232  61.1820  0.00  0.00     0.000 C
ATOM      4  C4  NGY C   1      38.172  68.368  60.1190  0.00  0.00     0.000 C
ATOM      5  C5  NGY C   1      37.305  69.579  60.4510  0.00  0.00     0.000 C
ATOM      6  O5  NGY C   1      36.657  69.339  61.7270  0.00  0.00     0.000 O
ATOM      7   O  NGY C   1      40.107  67.131  60.9320  0.00  0.00     0.000 O
ATOM      9  HD  NGY C   1      40.109  66.278  61.0780  0.00  0.00     0.000 HD
ATOM      9   O  NGY C   1      38.749  68.519  58.8300  0.00  0.00     0.000 O
ATOM     11  HD  NGY C   1      38.751  67.665  58.9750  0.00  0.00     0.000 HD
ENDROOT
BRANCH 2 13
ATOM     11   N  NGY C   1      39.294  67.982  63.7730  0.00  0.00     0.000 N
ATOM     13  HD  NGY C   1      39.516  67.145  63.7610  0.00  0.00     0.000 HD
ATOM     13   C  NGY C   1      39.850  66.851  64.2070  0.00  0.00     0.000 C
ATOM     14   O  NGY C   1      39.639  65.779  63.6370  0.00  0.00     0.000 OA
ATOM     15   C  NGY C   1      40.758  66.959  65.3940  0.00  0.00     0.000 C
ENDBRANCH 2 13
BRANCH 5 16
ATOM     16   C  NGY C   1      36.199  69.853  59.4820  0.00  0.00     0.000 C
ATOM     17   O  NGY C   1      36.377  72.379  56.8280  0.00  0.00     0.000 OA
ATOM     18   O  NGY C   1      36.520  71.031  58.7380  0.00  0.00     0.000 O
ATOM     19   S  NGY C   1      35.726  71.226  57.3960  0.00  0.00     0.000 S
ATOM     20   O  NGY C   1      34.355  71.487  57.7480  0.00  0.00     0.000 OA
ATOM     21   O  NGY C   1      35.913  69.977  56.6760  0.00  0.00     0.000 OA
ENDBRANCH 5 16
BRANCH 1 22
ATOM     22  O4  BDP C   2      38.261  70.292  63.0690  0.00  0.00     0.000 O
BRANCH 22 26
ATOM     23  C1  BDP C   2      38.667  73.867  65.0740  0.00  0.00     0.000 C
ATOM     24  C2  BDP C   2      38.398  72.661  65.9430  0.00  0.00     0.000 C
ATOM     25  C3  BDP C   2      38.635  71.403  65.1500  0.00  0.00     0.000 C
ATOM     26  C4  BDP C   2      37.833  71.437  63.8530  0.00  0.00     0.000 C
ATOM     27  C5  BDP C   2      38.047  72.770  63.1480  0.00  0.00     0.000 C
ATOM     28  O5  BDP C   2      37.705  73.906  63.9820  0.00  0.00     0.000 O
ATOM     29   O  BDP C   2      39.320  72.554  67.0270  0.00  0.00     0.000 O
ATOM     31  HD  BDP C   2      39.558  71.754  67.2560  0.00  0.00     0.000 HD
ATOM     31   O  BDP C   2      38.207  70.316  65.9610  0.00  0.00     0.000 O
ATOM     33  HD  BDP C   2      38.444  69.515  66.1900  0.00  0.00     0.000 HD
BRANCH 27 33
ATOM     33   C  BDP C   2      37.203  72.906  61.9030  0.00  0.00     0.000 C
ATOM     34   O  BDP C   2      35.981  72.624  61.8930  0.00  0.00     0.000 OA
ATOM     35   O  BDP C   2      37.743  73.271  60.8720  0.00  0.00     0.000 OA
ENDBRANCH 27 33
BRANCH 23 36
ATOM     36  O4  SGN C   3      38.615  75.061  65.7080  0.00  0.00     0.000 O
BRANCH 36 40
ATOM     37  C1  SGN C   3      40.396  78.816  66.1110  0.00  0.00     0.000 C
ATOM     38  C2  SGN C   3      39.417  78.611  64.9430  0.00  0.00     0.000 C
ATOM     39  C3  SGN C   3      38.547  77.386  65.1860  0.00  0.00     0.000 C
ATOM     40  C4  SGN C   3      39.444  76.186  65.4050  0.00  0.00     0.000 C
ATOM     41  C5  SGN C   3      40.385  76.484  66.5510  0.00  0.00     0.000 C
ATOM     42  O5  SGN C   3      41.179  77.639  66.2400  0.00  0.00     0.000 O
ATOM     43   O  SGN C   3      37.695  77.187  64.0650  0.00  0.00     0.000 O
ATOM     45  HD  SGN C   3      37.847  76.430  64.4580  0.00  0.00     0.000 HD
BRANCH 38 47
ATOM     45   N  SGN C   3      40.194  79.791  64.5240  0.00  0.00     0.000 N
ATOM     47  HD  SGN C   3      40.182  78.951  64.7320  0.00  0.00     0.000 HD
ATOM     47   S  SGN C   3      39.259  80.971  64.0120  0.00  0.00     0.000 S
ATOM     48   O  SGN C   3      38.586  80.615  62.8130  0.00  0.00     0.000 OA
ATOM     49   O  SGN C   3      38.441  81.352  65.1170  0.00  0.00     0.000 OA
ATOM     50   O  SGN C   3      40.238  82.005  63.6840  0.00  0.00     0.000 OA
ENDBRANCH 38 47
BRANCH 41 51
ATOM     51   C  SGN C   3      41.333  75.361  66.8760  0.00  0.00     0.000 C
ATOM     52   O  SGN C   3      43.442  73.429  64.4890  0.00  0.00     0.000 OA
ATOM     53   O  SGN C   3      43.894  74.065  66.7520  0.00  0.00     0.000 OA
ATOM     54   O  SGN C   3      42.103  72.548  66.2500  0.00  0.00     0.000 OA
ATOM     55   O  SGN C   3      41.968  74.943  65.6880  0.00  0.00     0.000 O
ATOM     56   S  SGN C   3      42.942  73.622  65.8070  0.00  0.00     0.000 S
ENDBRANCH 41 51
BRANCH 37 57
ATOM     57  O4  IDS C   4      39.806  79.066  67.3060  0.00  0.00     0.000 O
BRANCH 57 61
ATOM     58  C1  IDS C   4      39.083  81.183  70.3830  0.00  0.00     0.000 C
ATOM     59  C2  IDS C   4      38.934  81.806  69.0310  0.00  0.00     0.000 C
ATOM     60  C3  IDS C   4      40.037  81.381  68.0590  0.00  0.00     0.000 C
ATOM     61  C4  IDS C   4      40.536  79.948  68.1800  0.00  0.00     0.000 C
ATOM     62  C5  IDS C   4      40.458  79.467  69.6340  0.00  0.00     0.000 C
ATOM     63  O5  IDS C   4      39.205  79.779  70.2250  0.00  0.00     0.000 O
ATOM     64   O  IDS C   4      41.119  82.254  68.3180  0.00  0.00     0.000 O
ATOM     66  HD  IDS C   4      41.786  81.818  68.6590  0.00  0.00     0.000 HD
BRANCH 59 66
ATOM     66   O  IDS C   4      37.653  81.434  68.4000  0.00  0.00     0.000 O
ATOM     67   S  IDS C   4      36.585  82.599  68.2170  0.00  0.00     0.000 S
ATOM     68   O  IDS C   4      37.230  83.493  67.2850  0.00  0.00     0.000 OA
ATOM     69   O  IDS C   4      35.397  81.941  67.7100  0.00  0.00     0.000 OA
ATOM     70   O  IDS C   4      36.402  83.223  69.5190  0.00  0.00     0.000 OA
ENDBRANCH 59 66
BRANCH 62 71
ATOM     71   C  IDS C   4      40.611  77.964  69.7720  0.00  0.00     0.000 C
ATOM     72   O  IDS C   4      39.653  77.278  70.0730  0.00  0.00     0.000 OA
ATOM     73   O  IDS C   4      41.753  77.472  69.6720  0.00  0.00     0.000 OA
ENDBRANCH 62 71
BRANCH 58 74
ATOM     74  O4  SGN C   5      39.932  81.835  71.2260  0.00  0.00     0.000 O
BRANCH 74 78
ATOM     75  C1  SGN C   5      40.656  83.081  75.1460  0.00  0.00     0.000 C
ATOM     76  C2  SGN C   5      41.023  81.621  74.8230  0.00  0.00     0.000 C
ATOM     77  C3  SGN C   5      41.038  81.388  73.3060  0.00  0.00     0.000 C
ATOM     78  C4  SGN C   5      39.785  81.942  72.6420  0.00  0.00     0.000 C
ATOM     79  C5  SGN C   5      39.593  83.395  73.0520  0.00  0.00     0.000 C
ATOM     80  O5  SGN C   5      39.456  83.477  74.4960  0.00  0.00     0.000 O
ATOM     81   O  SGN C   5      41.161  79.992  73.0540  0.00  0.00     0.000 O
ATOM     83  HD  SGN C   5      41.653  79.482  73.5530  0.00  0.00     0.000 HD
BRANCH 76 85
ATOM     83   N  SGN C   5      42.290  81.641  75.5650  0.00  0.00     0.000 N
ATOM     85  HD  SGN C   5      42.946  81.251  75.9730  0.00  0.00     0.000 HD
ATOM     85   S  SGN C   5      42.749  80.757  76.8310  0.00  0.00     0.000 S
ATOM     86   O  SGN C   5      44.083  81.077  77.2030  0.00  0.00     0.000 OA
ATOM     87   O  SGN C   5      41.748  80.900  77.8270  0.00  0.00     0.000 OA
ATOM     88   O  SGN C   5      42.699  79.408  76.1170  0.00  0.00     0.000 OA
ENDBRANCH 76 85
BRANCH 79 89
ATOM     89   C  SGN C   5      38.379  84.046  72.4200  0.00  0.00     0.000 C
ATOM     90   O  SGN C   5      38.222  85.391  72.9340  0.00  0.00     0.000 O
ATOM     91   S  SGN C   5      37.576  86.471  71.9380  0.00  0.00     0.000 S
ATOM     92   O  SGN C   5      38.343  86.413  70.7220  0.00  0.00     0.000 OA
ATOM     93   O  SGN C   5      36.200  86.094  71.7400  0.00  0.00     0.000 OA
ATOM     94   O  SGN C   5      37.727  87.710  72.6520  0.00  0.00     0.000 OA
ENDBRANCH 79 89
BRANCH 75 95
ATOM     95  O4  BDP C   6      41.698  83.837  74.6880  0.00  0.00     0.000 O
BRANCH 95 99
ATOM     96  C1  BDP C   6      43.290  87.532  76.1900  0.00  0.00     0.000 C
ATOM     97  C2  BDP C   6      42.661  86.571  77.1590  0.00  0.00     0.000 C
ATOM     98  C3  BDP C   6      42.475  85.148  76.6090  0.00  0.00     0.000 C
ATOM     99  C4  BDP C   6      41.827  85.168  75.2330  0.00  0.00     0.000 C
ATOM    100  C5  BDP C   6      42.607  86.172  74.3520  0.00  0.00     0.000 C
ATOM    101  O5  BDP C   6      42.458  87.418  75.0500  0.00  0.00     0.000 O
BRANCH 100 102
ATOM    102   C  BDP C   6      42.003  86.333  72.9800  0.00  0.00     0.000 C
ATOM    103   O  BDP C   6      41.056  87.102  72.7600  0.00  0.00     0.000 OA
ATOM    104   O  BDP C   6      42.504  85.667  72.0660  0.00  0.00     0.000 OA
ENDBRANCH 100 102
ENDBRANCH 95 99
ENDBRANCH 75 95
ENDBRANCH 74 78
ENDBRANCH 58 74
ENDBRANCH 57 61
ENDBRANCH 37 57
ENDBRANCH 36 40
ENDBRANCH 23 36
ENDBRANCH 22 26
ENDBRANCH 1 22
TORSDOF 20
ENDMDL
MODEL 78
REMARK VINA RESULT:      -0.8     60.163     66.690
ROOT
ATOM      1  C1  NGY C   1      10.235  25.189 100.1580  0.00  0.00     0.000 C
ATOM      2  C2  NGY C   1       9.175  24.405 100.9180  0.00  0.00     0.000 C
ATOM      3  C3  NGY C   1       8.373  25.337 101.8200  0.00  0.00     0.000 C
ATOM      4  C4  NGY C   1       9.343  26.089 102.7110  0.00  0.00     0.000 C
ATOM      5  C5  NGY C   1      10.294  26.895 101.8300  0.00  0.00     0.000 C
ATOM      6  O5  NGY C   1      11.050  25.966 101.0090  0.00  0.00     0.000 O
ATOM      7   O  NGY C   1       7.441  24.573 102.5710  0.00  0.00     0.000 O
ATOM      9  HD  NGY C   1       7.414  23.795 102.9510  0.00  0.00     0.000 HD
ATOM      9   O  NGY C   1       8.652  26.953 103.6010  0.00  0.00     0.000 O
ATOM     11  HD  NGY C   1       8.625  26.175 103.9810  0.00  0.00     0.000 HD
ENDROOT
BRANCH 2 13
ATOM     11   N  NGY C   1       8.551  23.627  99.8740  0.00  0.00     0.000 N
ATOM     13  HD  NGY C   1       8.304  22.944 100.3450  0.00  0.00     0.000 HD
ATOM     13   C  NGY C   1       8.001  22.439 100.1220  0.00  0.00     0.000 C
ATOM     14   O  NGY C   1       8.128  21.895 101.2200  0.00  0.00     0.000 OA
ATOM     15   C  NGY C   1       7.204  21.822  99.0130  0.00  0.00     0.000 C
ENDBRANCH 2 13
BRANCH 5 16
ATOM     16   C  NGY C   1      11.312  27.703 102.5680  0.00  0.00     0.000 C
ATOM     17   O  NGY C   1      14.740  28.257 101.3840  0.00  0.00     0.000 OA
ATOM     18   O  NGY C   1      12.584  27.529 101.9360  0.00  0.00     0.000 O
ATOM     19   S  NGY C   1      13.665  28.617 102.2730  0.00  0.00     0.000 S
ATOM     20   O  NGY C   1      14.020  28.450 103.6580  0.00  0.00     0.000 OA
ATOM     21   O  NGY C   1      13.010  29.884 101.9910  0.00  0.00     0.000 OA
ENDBRANCH 5 16
BRANCH 1 22
ATOM     22  O4  BDP C   2       9.629  25.926  99.2030  0.00  0.00     0.000 O
BRANCH 22 26
ATOM     23  C1  BDP C   2       9.608  27.772  95.5210  0.00  0.00     0.000 C
ATOM     24  C2  BDP C   2       9.742  26.268  95.4940  0.00  0.00     0.000 C
ATOM     25  C3  BDP C   2       9.372  25.702  96.8400  0.00  0.00     0.000 C
ATOM     26  C4  BDP C   2      10.177  26.387  97.9400  0.00  0.00     0.000 C
ATOM     27  C5  BDP C   2      10.111  27.898  97.7640  0.00  0.00     0.000 C
ATOM     28  O5  BDP C   2      10.571  28.331  96.4580  0.00  0.00     0.000 O
ATOM     29   O  BDP C   2       8.810  25.654  94.6030  0.00  0.00     0.000 O
ATOM     31  HD  BDP C   2       8.487  24.889  94.8470  0.00  0.00     0.000 HD
ATOM     31   O  BDP C   2       9.678  24.314  96.8030  0.00  0.00     0.000 O
ATOM     33  HD  BDP C   2       9.355  23.548  97.0470  0.00  0.00     0.000 HD
BRANCH 27 33
ATOM     33   C  BDP C   2      10.968  28.634  98.7660  0.00  0.00     0.000 C
ATOM     34   O  BDP C   2      10.500  29.522  99.5180  0.00  0.00     0.000 OA
ATOM     35   O  BDP C   2      12.159  28.373  98.8130  0.00  0.00     0.000 OA
ENDBRANCH 27 33
BRANCH 23 36
ATOM     36  O4  SGN C   3       9.787  28.392  94.3320  0.00  0.00     0.000 O
BRANCH 36 40
ATOM     37  C1  SGN C   3       8.499  31.471  91.8240  0.00  0.00     0.000 C
ATOM     38  C2  SGN C   3       9.408  31.846  93.0060  0.00  0.00     0.000 C
ATOM     39  C3  SGN C   3      10.126  30.614  93.5370  0.00  0.00     0.000 C
ATOM     40  C4  SGN C   3       9.095  29.570  93.9090  0.00  0.00     0.000 C
ATOM     41  C5  SGN C   3       8.234  29.281  92.6990  0.00  0.00     0.000 C
ATOM     42  O5  SGN C   3       7.580  30.486  92.2700  0.00  0.00     0.000 O
ATOM     43   O  SGN C   3      10.912  30.978  94.6650  0.00  0.00     0.000 O
ATOM     45  HD  SGN C   3      10.679  30.146  94.7240  0.00  0.00     0.000 HD
BRANCH 38 47
ATOM     45   N  SGN C   3       8.768  33.133  92.6810  0.00  0.00     0.000 N
ATOM     47  HD  SGN C   3       8.685  32.315  92.9540  0.00  0.00     0.000 HD
ATOM     47   S  SGN C   3       9.828  34.310  92.5450  0.00  0.00     0.000 S
ATOM     48   O  SGN C   3      10.450  34.592  93.7900  0.00  0.00     0.000 OA
ATOM     49   O  SGN C   3      10.689  33.961  91.4630  0.00  0.00     0.000 OA
ATOM     50   O  SGN C   3       8.971  35.444  92.2070  0.00  0.00     0.000 OA
ENDBRANCH 38 47
BRANCH 41 51
ATOM     51   C  SGN C   3       7.165  28.249  92.9370  0.00  0.00     0.000 C
ATOM     52   O  SGN C   3       4.736  28.127  95.7580  0.00  0.00     0.000 OA
ATOM     53   O  SGN C   3       4.457  27.455  93.4770  0.00  0.00     0.000 OA
ATOM     54   O  SGN C   3       6.021  26.316  94.8990  0.00  0.00     0.000 OA
ATOM     55   O  SGN C   3       6.436  28.606  94.0900  0.00  0.00     0.000 O
ATOM     56   S  SGN C   3       5.308  27.523  94.6040  0.00  0.00     0.000 S
ENDBRANCH 41 51
BRANCH 37 57
ATOM     57  O4  IDS C   4       9.152  30.984  90.7410  0.00  0.00     0.000 O
BRANCH 57 61
ATOM     58  C1  IDS C   4      10.249  31.009  87.0990  0.00  0.00     0.000 C
ATOM     59  C2  IDS C   4      10.472  32.236  87.9250  0.00  0.00     0.000 C
ATOM     60  C3  IDS C   4       9.301  32.540  88.8620  0.00  0.00     0.000 C
ATOM     61  C4  IDS C   4       8.583  31.341  89.4660  0.00  0.00     0.000 C
ATOM     62  C5  IDS C   4       8.609  30.149  88.5020  0.00  0.00     0.000 C
ATOM     63  O5  IDS C   4       9.905  29.937  87.9610  0.00  0.00     0.000 O
ATOM     64   O  IDS C   4       8.373  33.264  88.0750  0.00  0.00     0.000 O
ATOM     66  HD  IDS C   4       7.652  32.800  87.9530  0.00  0.00     0.000 HD
BRANCH 59 66
ATOM     66   O  IDS C   4      11.668  32.105  88.7790  0.00  0.00     0.000 O
ATOM     67   S  IDS C   4      12.948  32.944  88.3440  0.00  0.00     0.000 S
ATOM     68   O  IDS C   4      12.511  34.312  88.4970  0.00  0.00     0.000 OA
ATOM     69   O  IDS C   4      13.994  32.531  89.2580  0.00  0.00     0.000 OA
ATOM     70   O  IDS C   4      13.222  32.621  86.9520  0.00  0.00     0.000 OA
ENDBRANCH 59 66
BRANCH 62 71
ATOM     71   C  IDS C   4       8.224  28.840  89.1640  0.00  0.00     0.000 C
ATOM     72   O  IDS C   4       9.070  27.995  89.3850  0.00  0.00     0.000 OA
ATOM     73   O  IDS C   4       7.015  28.615  89.3760  0.00  0.00     0.000 OA
ENDBRANCH 62 71
BRANCH 58 74
ATOM     74  O4  SGN C   5       9.526  31.206  85.9600  0.00  0.00     0.000 O
BRANCH 74 78
ATOM     75  C1  SGN C   5       9.086  30.279  81.9110  0.00  0.00     0.000 C
ATOM     76  C2  SGN C   5       8.643  29.190  82.9060  0.00  0.00     0.000 C
ATOM     77  C3  SGN C   5       8.529  29.764  84.3240  0.00  0.00     0.000 C
ATOM     78  C4  SGN C   5       9.762  30.574  84.7010  0.00  0.00     0.000 C
ATOM     79  C5  SGN C   5      10.035  31.613  83.6240  0.00  0.00     0.000 C
ATOM     80  O5  SGN C   5      10.261  30.947  82.3530  0.00  0.00     0.000 O
ATOM     81   O  SGN C   5       8.335  28.693  85.2420  0.00  0.00     0.000 O
ATOM     83  HD  SGN C   5       7.854  28.002  85.0390  0.00  0.00     0.000 HD
BRANCH 76 85
ATOM     83   N  SGN C   5       8.111  27.858  82.5910  0.00  0.00     0.000 N
ATOM     85  HD  SGN C   5       7.843  27.251  82.0350  0.00  0.00     0.000 HD
ATOM     85   S  SGN C   5       7.007  27.429  81.5000  0.00  0.00     0.000 S
ATOM     86   O  SGN C   5       6.825  26.019  81.5040  0.00  0.00     0.000 OA
ATOM     87   O  SGN C   5       5.857  28.229  81.7300  0.00  0.00     0.000 OA
ATOM     88   O  SGN C   5       7.807  27.865  80.2750  0.00  0.00     0.000 OA
ENDBRANCH 76 85
BRANCH 79 89
ATOM     89   C  SGN C   5      11.234  32.491  83.9210  0.00  0.00     0.000 C
ATOM     90   O  SGN C   5      12.338  32.119  83.0600  0.00  0.00     0.000 O
ATOM     91   S  SGN C   5      13.350  33.292  82.6380  0.00  0.00     0.000 S
ATOM     92   O  SGN C   5      12.540  34.353  82.0990  0.00  0.00     0.000 OA
ATOM     93   O  SGN C   5      14.056  33.690  83.8290  0.00  0.00     0.000 OA
ATOM     94   O  SGN C   5      14.195  32.664  81.6600  0.00  0.00     0.000 OA
ENDBRANCH 79 89
BRANCH 75 95
ATOM     95  O4  BDP C   6       8.050  31.167  81.8460  0.00  0.00     0.000 O
BRANCH 95 99
ATOM     96  C1  BDP C   6       6.614  33.635  78.6370  0.00  0.00     0.000 C
ATOM     97  C2  BDP C   6       7.028  32.223  78.3320  0.00  0.00     0.000 C
ATOM     98  C3  BDP C   6       7.156  31.319  79.5670  0.00  0.00     0.000 C
ATOM     99  C4  BDP C   6       7.972  31.990  80.6620  0.00  0.00     0.000 C
ATOM    100  C5  BDP C   6       7.401  33.411  80.8790  0.00  0.00     0.000 C
ATOM    101  O5  BDP C   6       7.570  34.041  79.5990  0.00  0.00     0.000 O
BRANCH 100 102
ATOM    102   C  BDP C   6       8.186  34.204  81.8940  0.00  0.00     0.000 C
ATOM    103   O  BDP C   6       7.754  34.433  83.0330  0.00  0.00     0.000 OA
ATOM    104   O  BDP C   6       9.300  34.612  81.5440  0.00  0.00     0.000 OA
ENDBRANCH 100 102
ENDBRANCH 95 99
ENDBRANCH 75 95
ENDBRANCH 74 78
ENDBRANCH 58 74
ENDBRANCH 57 61
ENDBRANCH 37 57
ENDBRANCH 36 40
ENDBRANCH 23 36
ENDBRANCH 22 26
ENDBRANCH 1 22
TORSDOF 20
ENDMDL
MODEL 79
REMARK VINA RESULT:      -0.8     79.412     86.363
ROOT
ATOM      1  C1  NGY C   1     104.139  25.898  56.0790  0.00  0.00     0.000 C
ATOM      2  C2  NGY C   1     104.982  24.807  56.7250  0.00  0.00     0.000 C
ATOM      3  C3  NGY C   1     106.315  25.379  57.1970  0.00  0.00     0.000 C
ATOM      4  C4  NGY C   1     106.984  26.062  56.0200  0.00  0.00     0.000 C
ATOM      5  C5  NGY C   1     106.075  27.182  55.5220  0.00  0.00     0.000 C
ATOM      6  O5  NGY C   1     104.833  26.589  55.0620  0.00  0.00     0.000 O
ATOM      7   O  NGY C   1     107.111  24.330  57.7290  0.00  0.00     0.000 O
ATOM      9  HD  NGY C   1     107.259  23.494  57.5600  0.00  0.00     0.000 HD
ATOM      9   O  NGY C   1     108.250  26.589  56.3900  0.00  0.00     0.000 O
ATOM     11  HD  NGY C   1     108.398  25.752  56.2200  0.00  0.00     0.000 HD
ENDROOT
BRANCH 2 13
ATOM     11   N  NGY C   1     104.046  24.186  57.6320  0.00  0.00     0.000 N
ATOM     13  HD  NGY C   1     104.380  23.387  57.6430  0.00  0.00     0.000 HD
ATOM     13   C  NGY C   1     104.150  22.902  57.9720  0.00  0.00     0.000 C
ATOM     14   O  NGY C   1     104.962  22.160  57.4160  0.00  0.00     0.000 OA
ATOM     15   C  NGY C   1     103.256  22.423  59.0740  0.00  0.00     0.000 C
ENDBRANCH 2 13
BRANCH 5 16
ATOM     16   C  NGY C   1     106.604  27.962  54.3610  0.00  0.00     0.000 C
ATOM     17   O  NGY C   1     104.499  29.383  51.7150  0.00  0.00     0.000 OA
ATOM     18   O  NGY C   1     105.543  28.172  53.4250  0.00  0.00     0.000 O
ATOM     19   S  NGY C   1     105.774  29.324  52.3830  0.00  0.00     0.000 S
ATOM     20   O  NGY C   1     106.833  28.900  51.5070  0.00  0.00     0.000 OA
ATOM     21   O  NGY C   1     106.117  30.484  53.1900  0.00  0.00     0.000 OA
ENDBRANCH 5 16
BRANCH 1 22
ATOM     22  O4  BDP C   2     103.678  26.720  57.0450  0.00  0.00     0.000 O
BRANCH 22 26
ATOM     23  C1  BDP C   2     100.850  29.304  58.5570  0.00  0.00     0.000 C
ATOM     24  C2  BDP C   2     100.388  27.880  58.3550  0.00  0.00     0.000 C
ATOM     25  C3  BDP C   2     101.582  26.984  58.1580  0.00  0.00     0.000 C
ATOM     26  C4  BDP C   2     102.469  27.523  57.0410  0.00  0.00     0.000 C
ATOM     27  C5  BDP C   2     102.725  29.008  57.2560  0.00  0.00     0.000 C
ATOM     28  O5  BDP C   2     101.501  29.782  57.3470  0.00  0.00     0.000 O
ATOM     29   O  BDP C   2      99.752  27.344  59.5160  0.00  0.00     0.000 O
ATOM     31  HD  BDP C   2      99.887  26.504  59.6790  0.00  0.00     0.000 HD
ATOM     31   O  BDP C   2     101.082  25.699  57.8090  0.00  0.00     0.000 O
ATOM     33  HD  BDP C   2     101.216  24.859  57.9710  0.00  0.00     0.000 HD
BRANCH 27 33
ATOM     33   C  BDP C   2     103.518  29.627  56.1290  0.00  0.00     0.000 C
ATOM     34   O  BDP C   2     104.575  30.271  56.3340  0.00  0.00     0.000 OA
ATOM     35   O  BDP C   2     103.090  29.520  54.9920  0.00  0.00     0.000 OA
ENDBRANCH 27 33
BRANCH 23 36
ATOM     36  O4  SGN C   3      99.877  30.189  58.8750  0.00  0.00     0.000 O
BRANCH 36 40
ATOM     37  C1  SGN C   3      98.949  33.653  61.0120  0.00  0.00     0.000 C
ATOM     38  C2  SGN C   3      99.619  33.819  59.6390  0.00  0.00     0.000 C
ATOM     39  C3  SGN C   3      99.489  32.540  58.8250  0.00  0.00     0.000 C
ATOM     40  C4  SGN C   3     100.077  31.394  59.6190  0.00  0.00     0.000 C
ATOM     41  C5  SGN C   3      99.377  31.319  60.9580  0.00  0.00     0.000 C
ATOM     42  O5  SGN C   3      99.559  32.554  61.6700  0.00  0.00     0.000 O
ATOM     43   O  SGN C   3     100.168  32.702  57.5850  0.00  0.00     0.000 O
ATOM     45  HD  SGN C   3     100.157  31.866  57.8090  0.00  0.00     0.000 HD
BRANCH 38 47
ATOM     45   N  SGN C   3      99.889  35.114  60.2900  0.00  0.00     0.000 N
ATOM     47  HD  SGN C   3      99.997  34.254  60.2810  0.00  0.00     0.000 HD
ATOM     47   S  SGN C   3      99.530  36.343  59.3480  0.00  0.00     0.000 S
ATOM     48   O  SGN C   3     100.385  36.394  58.2160  0.00  0.00     0.000 OA
ATOM     49   O  SGN C   3      98.130  36.264  59.0900  0.00  0.00     0.000 OA
ATOM     50   O  SGN C   3      99.857  37.480  60.2060  0.00  0.00     0.000 OA
ENDBRANCH 38 47
BRANCH 41 51
ATOM     51   C  SGN C   3      99.869  30.210  61.8480  0.00  0.00     0.000 C
ATOM     52   O  SGN C   3      97.966  27.213  62.9760  0.00  0.00     0.000 OA
ATOM     53   O  SGN C   3     100.297  27.440  62.4770  0.00  0.00     0.000 OA
ATOM     54   O  SGN C   3      99.326  28.632  64.3210  0.00  0.00     0.000 OA
ATOM     55   O  SGN C   3      98.847  29.248  61.9840  0.00  0.00     0.000 O
ATOM     56   S  SGN C   3      99.137  28.019  63.0400  0.00  0.00     0.000 S
ENDBRANCH 41 51
BRANCH 37 57
ATOM     57  O4  IDS C   4      97.612  33.431  60.9660  0.00  0.00     0.000 O
BRANCH 57 61
ATOM     58  C1  IDS C   4      93.965  34.246  61.6780  0.00  0.00     0.000 C
ATOM     59  C2  IDS C   4      94.813  35.277  61.0020  0.00  0.00     0.000 C
ATOM     60  C3  IDS C   4      96.228  35.351  61.5800  0.00  0.00     0.000 C
ATOM     61  C4  IDS C   4      96.850  34.035  62.0290  0.00  0.00     0.000 C
ATOM     62  C5  IDS C   4      95.773  33.074  62.5460  0.00  0.00     0.000 C
ATOM     63  O5  IDS C   4      94.659  33.010  61.6690  0.00  0.00     0.000 O
ATOM     64   O  IDS C   4      96.127  36.203  62.7050  0.00  0.00     0.000 O
ATOM     66  HD  IDS C   4      96.269  35.759  63.4350  0.00  0.00     0.000 HD
BRANCH 59 66
ATOM     66   O  IDS C   4      94.963  34.996  59.5620  0.00  0.00     0.000 O
ATOM     67   S  IDS C   4      94.245  36.004  58.5620  0.00  0.00     0.000 S
ATOM     68   O  IDS C   4      94.945  37.246  58.7890  0.00  0.00     0.000 OA
ATOM     69   O  IDS C   4      94.437  35.426  57.2470  0.00  0.00     0.000 OA
ATOM     70   O  IDS C   4      92.851  36.092  58.9670  0.00  0.00     0.000 OA
ENDBRANCH 59 66
BRANCH 62 71
ATOM     71   C  IDS C   4      96.268  31.647  62.6850  0.00  0.00     0.000 C
ATOM     72   O  IDS C   4      95.867  30.786  61.9250  0.00  0.00     0.000 OA
ATOM     73   O  IDS C   4      97.004  31.364  63.6510  0.00  0.00     0.000 OA
ENDBRANCH 62 71
BRANCH 58 74
ATOM     74  O4  SGN C   5      93.361  34.662  62.8270  0.00  0.00     0.000 O
BRANCH 74 78
ATOM     75  C1  SGN C   5      89.903  34.582  65.1680  0.00  0.00     0.000 C
ATOM     76  C2  SGN C   5      90.770  33.309  65.2000  0.00  0.00     0.000 C
ATOM     77  C3  SGN C   5      92.153  33.580  64.5930  0.00  0.00     0.000 C
ATOM     78  C4  SGN C   5      92.048  34.303  63.2580  0.00  0.00     0.000 C
ATOM     79  C5  SGN C   5      91.180  35.543  63.4190  0.00  0.00     0.000 C
ATOM     80  O5  SGN C   5      89.855  35.152  63.8660  0.00  0.00     0.000 O
ATOM     81   O  SGN C   5      92.840  32.343  64.4390  0.00  0.00     0.000 O
ATOM     83  HD  SGN C   5      92.764  31.705  65.0200  0.00  0.00     0.000 HD
BRANCH 76 85
ATOM     83   N  SGN C   5      90.581  33.132  66.6450  0.00  0.00     0.000 N
ATOM     85  HD  SGN C   5      90.616  32.662  67.3710  0.00  0.00     0.000 HD
ATOM     85   S  SGN C   5      90.003  31.865  67.4530  0.00  0.00     0.000 S
ATOM     86   O  SGN C   5      90.038  32.110  68.8530  0.00  0.00     0.000 OA
ATOM     87   O  SGN C   5      88.742  31.545  66.8850  0.00  0.00     0.000 OA
ATOM     88   O  SGN C   5      91.108  30.893  67.0490  0.00  0.00     0.000 OA
ENDBRANCH 76 85
BRANCH 79 89
ATOM     89   C  SGN C   5      91.034  36.347  62.1430  0.00  0.00     0.000 C
ATOM     90   O  SGN C   5      89.633  36.615  61.8910  0.00  0.00     0.000 O
ATOM     91   S  SGN C   5      89.285  37.990  61.1380  0.00  0.00     0.000 S
ATOM     92   O  SGN C   5      89.939  39.036  61.8810  0.00  0.00     0.000 OA
ATOM     93   O  SGN C   5      89.786  37.874  59.7930  0.00  0.00     0.000 OA
ATOM     94   O  SGN C   5      87.851  38.050  61.2070  0.00  0.00     0.000 OA
ENDBRANCH 79 89
BRANCH 75 95
ATOM     95  O4  BDP C   6      90.496  35.459  66.0310  0.00  0.00     0.000 O
BRANCH 95 99
ATOM     96  C1  BDP C   6      88.688  38.513  68.4490  0.00  0.00     0.000 C
ATOM     97  C2  BDP C   6      87.856  37.332  68.0380  0.00  0.00     0.000 C
ATOM     98  C3  BDP C   6      88.667  36.135  67.5190  0.00  0.00     0.000 C
ATOM     99  C4  BDP C   6      89.694  36.571  66.4840  0.00  0.00     0.000 C
ATOM    100  C5  BDP C   6      90.486  37.763  67.0700  0.00  0.00     0.000 C
ATOM    101  O5  BDP C   6      89.475  38.758  67.2980  0.00  0.00     0.000 O
BRANCH 100 102
ATOM    102   C  BDP C   6      91.486  38.332  66.0960  0.00  0.00     0.000 C
ATOM    103   O  BDP C   6      91.155  38.760  64.9810  0.00  0.00     0.000 OA
ATOM    104   O  BDP C   6      92.667  38.367  66.4630  0.00  0.00     0.000 OA
ENDBRANCH 100 102
ENDBRANCH 95 99
ENDBRANCH 75 95
ENDBRANCH 74 78
ENDBRANCH 58 74
ENDBRANCH 57 61
ENDBRANCH 37 57
ENDBRANCH 36 40
ENDBRANCH 23 36
ENDBRANCH 22 26
ENDBRANCH 1 22
TORSDOF 20
ENDMDL
MODEL 80
REMARK VINA RESULT:      -0.8     86.011     91.766
ROOT
ATOM      1  C1  NGY C   1      37.121  62.699 118.6500  0.00  0.00     0.000 C
ATOM      2  C2  NGY C   1      36.624  64.021 119.2180  0.00  0.00     0.000 C
ATOM      3  C3  NGY C   1      37.589  65.147 118.8600  0.00  0.00     0.000 C
ATOM      4  C4  NGY C   1      38.975  64.753 119.3330  0.00  0.00     0.000 C
ATOM      5  C5  NGY C   1      39.385  63.462 118.6290  0.00  0.00     0.000 C
ATOM      6  O5  NGY C   1      38.455  62.418 119.0170  0.00  0.00     0.000 O
ATOM      7   O  NGY C   1      37.143  66.353 119.4620  0.00  0.00     0.000 O
ATOM      9  HD  NGY C   1      36.762  66.594 120.2020  0.00  0.00     0.000 HD
ATOM      9   O  NGY C   1      39.917  65.779 119.0580  0.00  0.00     0.000 O
ATOM     11  HD  NGY C   1      39.537  66.020 119.7980  0.00  0.00     0.000 HD
ENDROOT
BRANCH 2 13
ATOM     11   N  NGY C   1      35.237  64.021 118.8170  0.00  0.00     0.000 N
ATOM     13  HD  NGY C   1      34.913  64.514 119.4520  0.00  0.00     0.000 HD
ATOM     13   C  NGY C   1      34.308  64.672 119.5160  0.00  0.00     0.000 C
ATOM     14   O  NGY C   1      34.571  65.179 120.6080  0.00  0.00     0.000 OA
ATOM     15   C  NGY C   1      32.949  64.776 118.8950  0.00  0.00     0.000 C
ENDBRANCH 2 13
BRANCH 5 16
ATOM     16   C  NGY C   1      40.742  62.947 118.9860  0.00  0.00     0.000 C
ATOM     17   O  NGY C   1      43.748  63.511 116.9590  0.00  0.00     0.000 OA
ATOM     18   O  NGY C   1      41.622  63.163 117.8790  0.00  0.00     0.000 O
ATOM     19   S  NGY C   1      43.157  63.107 118.2100  0.00  0.00     0.000 S
ATOM     20   O  NGY C   1      43.470  61.743 118.5480  0.00  0.00     0.000 OA
ATOM     21   O  NGY C   1      43.327  64.033 119.3170  0.00  0.00     0.000 OA
ENDBRANCH 5 16
BRANCH 1 22
ATOM     22  O4  BDP C   2      36.941  62.707 117.3120  0.00  0.00     0.000 O
BRANCH 22 26
ATOM     23  C1  BDP C   2      36.101  60.729 113.7980  0.00  0.00     0.000 C
ATOM     24  C2  BDP C   2      35.199  60.396 114.9630  0.00  0.00     0.000 C
ATOM     25  C3  BDP C   2      35.370  61.429 116.0460  0.00  0.00     0.000 C
ATOM     26  C4  BDP C   2      36.844  61.572 116.4110  0.00  0.00     0.000 C
ATOM     27  C5  BDP C   2      37.677  61.727 115.1460  0.00  0.00     0.000 C
ATOM     28  O5  BDP C   2      37.492  60.631 114.2140  0.00  0.00     0.000 O
ATOM     29   O  BDP C   2      33.815  60.490 114.6240  0.00  0.00     0.000 O
ATOM     31  HD  BDP C   2      33.284  60.784 115.2420  0.00  0.00     0.000 HD
ATOM     31   O  BDP C   2      34.630  60.974 117.1720  0.00  0.00     0.000 O
ATOM     33  HD  BDP C   2      34.099  61.267 117.7900  0.00  0.00     0.000 HD
BRANCH 27 33
ATOM     33   C  BDP C   2      39.159  61.776 115.4320  0.00  0.00     0.000 C
ATOM     34   O  BDP C   2      39.865  62.765 115.1210  0.00  0.00     0.000 OA
ATOM     35   O  BDP C   2      39.682  60.804 115.9520  0.00  0.00     0.000 OA
ENDBRANCH 27 33
BRANCH 23 36
ATOM     36  O4  SGN C   3      35.945  59.948 112.7040  0.00  0.00     0.000 O
BRANCH 36 40
ATOM     37  C1  SGN C   3      35.845  59.872 108.5310  0.00  0.00     0.000 C
ATOM     38  C2  SGN C   3      37.221  59.803 109.2130  0.00  0.00     0.000 C
ATOM     39  C3  SGN C   3      37.071  59.404 110.6740  0.00  0.00     0.000 C
ATOM     40  C4  SGN C   3      36.137  60.382 111.3540  0.00  0.00     0.000 C
ATOM     41  C5  SGN C   3      34.822  60.402 110.6060  0.00  0.00     0.000 C
ATOM     42  O5  SGN C   3      35.045  60.802 109.2450  0.00  0.00     0.000 O
ATOM     43   O  SGN C   3      38.350  59.406 111.2950  0.00  0.00     0.000 O
ATOM     45  HD  SGN C   3      37.736  59.565 111.8840  0.00  0.00     0.000 HD
BRANCH 38 47
ATOM     45   N  SGN C   3      37.543  60.233 107.8410  0.00  0.00     0.000 N
ATOM     47  HD  SGN C   3      37.137  60.393 108.5890  0.00  0.00     0.000 HD
ATOM     47   S  SGN C   3      38.742  59.395 107.2190  0.00  0.00     0.000 S
ATOM     48   O  SGN C   3      39.960  59.647 107.9040  0.00  0.00     0.000 OA
ATOM     49   O  SGN C   3      38.307  58.038 107.1630  0.00  0.00     0.000 OA
ATOM     50   O  SGN C   3      38.852  59.980 105.8840  0.00  0.00     0.000 OA
ENDBRANCH 38 47
BRANCH 41 51
ATOM     51   C  SGN C   3      33.798  61.338 111.1870  0.00  0.00     0.000 C
ATOM     52   O  SGN C   3      34.353  64.812 112.4110  0.00  0.00     0.000 OA
ATOM     53   O  SGN C   3      32.437  63.864 111.3330  0.00  0.00     0.000 OA
ATOM     54   O  SGN C   3      33.119  63.093 113.5020  0.00  0.00     0.000 OA
ATOM     55   O  SGN C   3      34.418  62.571 111.4750  0.00  0.00     0.000 O
ATOM     56   S  SGN C   3      33.494  63.688 112.2540  0.00  0.00     0.000 S
ENDBRANCH 41 51
BRANCH 37 57
ATOM     57  O4  IDS C   4      35.179  58.692 108.4790  0.00  0.00     0.000 O
BRANCH 57 61
ATOM     58  C1  IDS C   4      33.625  55.734 106.6620  0.00  0.00     0.000 C
ATOM     59  C2  IDS C   4      35.021  56.139 106.3110  0.00  0.00     0.000 C
ATOM     60  C3  IDS C   4      35.202  57.658 106.2640  0.00  0.00     0.000 C
ATOM     61  C4  IDS C   4      34.412  58.470 107.2800  0.00  0.00     0.000 C
ATOM     62  C5  IDS C   4      33.078  57.786 107.6030  0.00  0.00     0.000 C
ATOM     63  O5  IDS C   4      33.245  56.398 107.8550  0.00  0.00     0.000 O
ATOM     64   O  IDS C   4      34.787  58.043 104.9660  0.00  0.00     0.000 O
ATOM     66  HD  IDS C   4      34.064  58.518 105.0080  0.00  0.00     0.000 HD
BRANCH 59 66
ATOM     66   O  IDS C   4      35.997  55.632 107.2940  0.00  0.00     0.000 O
ATOM     67   S  IDS C   4      36.974  54.478 106.7960  0.00  0.00     0.000 S
ATOM     68   O  IDS C   4      37.757  55.129 105.7740  0.00  0.00     0.000 OA
ATOM     69   O  IDS C   4      37.717  54.083 107.9770  0.00  0.00     0.000 OA
ATOM     70   O  IDS C   4      36.143  53.420 106.2430  0.00  0.00     0.000 OA
ENDBRANCH 59 66
BRANCH 62 71
ATOM     71   C  IDS C   4      32.406  58.348 108.8410  0.00  0.00     0.000 C
ATOM     72   O  IDS C   4      32.225  57.639 109.8130  0.00  0.00     0.000 OA
ATOM     73   O  IDS C   4      31.955  59.510 108.7960  0.00  0.00     0.000 OA
ENDBRANCH 62 71
BRANCH 58 74
ATOM     74  O4  SGN C   5      32.755  55.698 105.6130  0.00  0.00     0.000 O
BRANCH 74 78
ATOM     75  C1  SGN C   5      29.599  53.675 103.7720  0.00  0.00     0.000 C
ATOM     76  C2  SGN C   5      29.239  54.486 105.0310  0.00  0.00     0.000 C
ATOM     77  C3  SGN C   5      30.380  55.440 105.4070  0.00  0.00     0.000 C
ATOM     78  C4  SGN C   5      31.726  54.729 105.4120  0.00  0.00     0.000 C
ATOM     79  C5  SGN C   5      31.924  54.006 104.0890  0.00  0.00     0.000 C
ATOM     80  O5  SGN C   5      30.861  53.034 103.9040  0.00  0.00     0.000 O
ATOM     81   O  SGN C   5      30.108  56.005 106.6850  0.00  0.00     0.000 O
ATOM     83  HD  SGN C   5      29.303  56.213 106.9280  0.00  0.00     0.000 HD
BRANCH 76 85
ATOM     83   N  SGN C   5      27.860  54.050 104.7780  0.00  0.00     0.000 N
ATOM     85  HD  SGN C   5      27.052  54.185 104.4980  0.00  0.00     0.000 HD
ATOM     85   S  SGN C   5      26.478  54.848 104.9970  0.00  0.00     0.000 S
ATOM     86   O  SGN C   5      25.375  54.056 104.5760  0.00  0.00     0.000 OA
ATOM     87   O  SGN C   5      26.468  55.307 106.3400  0.00  0.00     0.000 OA
ATOM     88   O  SGN C   5      26.763  55.954 103.9850  0.00  0.00     0.000 OA
ENDBRANCH 76 85
BRANCH 79 89
ATOM     89   C  SGN C   5      33.252  53.284 103.9870  0.00  0.00     0.000 C
ATOM     90   O  SGN C   5      33.065  51.873 104.2600  0.00  0.00     0.000 O
ATOM     91   S  SGN C   5      34.047  50.856 103.5010  0.00  0.00     0.000 S
ATOM     92   O  SGN C   5      33.965  51.180 102.1010  0.00  0.00     0.000 OA
ATOM     93   O  SGN C   5      35.368  51.063 104.0370  0.00  0.00     0.000 OA
ATOM     94   O  SGN C   5      33.500  49.566 103.8230  0.00  0.00     0.000 OA
ENDBRANCH 79 89
BRANCH 75 95
ATOM     95  O4  BDP C   6      29.649  54.579 102.7490  0.00  0.00     0.000 O
BRANCH 95 99
ATOM     96  C1  BDP C   6      28.678  54.193  98.5830  0.00  0.00     0.000 C
ATOM     97  C2  BDP C   6      27.807  53.502  99.5940  0.00  0.00     0.000 C
ATOM     98  C3  BDP C   6      27.992  53.999 101.0350  0.00  0.00     0.000 C
ATOM     99  C4  BDP C   6      29.465  54.062 101.4130  0.00  0.00     0.000 C
ATOM    100  C5  BDP C   6      30.212  54.830 100.2970  0.00  0.00     0.000 C
ATOM    101  O5  BDP C   6      29.976  54.033  99.1250  0.00  0.00     0.000 O
BRANCH 100 102
ATOM    102   C  BDP C   6      31.701  54.887 100.5270  0.00  0.00     0.000 C
ATOM    103   O  BDP C   6      32.280  55.934 100.8500  0.00  0.00     0.000 OA
ATOM    104   O  BDP C   6      32.328  53.830 100.3910  0.00  0.00     0.000 OA
ENDBRANCH 100 102
ENDBRANCH 95 99
ENDBRANCH 75 95
ENDBRANCH 74 78
ENDBRANCH 58 74
ENDBRANCH 57 61
ENDBRANCH 37 57
ENDBRANCH 36 40
ENDBRANCH 23 36
ENDBRANCH 22 26
ENDBRANCH 1 22
TORSDOF 20
ENDMDL
MODEL 81
REMARK VINA RESULT:      -0.8     67.908     72.301
ROOT
ATOM      1  C1  NGY C   1      22.328  19.855 102.4320  0.00  0.00     0.000 C
ATOM      2  C2  NGY C   1      22.175  21.353 102.2060  0.00  0.00     0.000 C
ATOM      3  C3  NGY C   1      23.225  21.848 101.2170  0.00  0.00     0.000 C
ATOM      4  C4  NGY C   1      24.592  21.435 101.7280  0.00  0.00     0.000 C
ATOM      5  C5  NGY C   1      24.639  19.914 101.8290  0.00  0.00     0.000 C
ATOM      6  O5  NGY C   1      23.642  19.492 102.7970  0.00  0.00     0.000 O
ATOM      7   O  NGY C   1      23.109  23.257 101.0790  0.00  0.00     0.000 O
ATOM      9  HD  NGY C   1      22.924  23.933 101.5860  0.00  0.00     0.000 HD
ATOM      9   O  NGY C   1      25.619  21.899 100.8630  0.00  0.00     0.000 O
ATOM     11  HD  NGY C   1      25.434  22.576 101.3710  0.00  0.00     0.000 HD
ENDROOT
BRANCH 2 13
ATOM     11   N  NGY C   1      20.757  21.483 101.9680  0.00  0.00     0.000 N
ATOM     13  HD  NGY C   1      20.648  22.295 102.2500  0.00  0.00     0.000 HD
ATOM     13   C  NGY C   1      20.101  22.606 102.2590  0.00  0.00     0.000 C
ATOM     14   O  NGY C   1      20.648  23.522 102.8740  0.00  0.00     0.000 OA
ATOM     15   C  NGY C   1      18.685  22.701 101.7780  0.00  0.00     0.000 C
ENDBRANCH 2 13
BRANCH 5 16
ATOM     16   C  NGY C   1      25.936  19.349 102.3140  0.00  0.00     0.000 C
ATOM     17   O  NGY C   1      28.508  17.939 100.1100  0.00  0.00     0.000 OA
ATOM     18   O  NGY C   1      26.591  18.699 101.2210  0.00  0.00     0.000 O
ATOM     19   S  NGY C   1      28.130  18.442 101.4060  0.00  0.00     0.000 S
ATOM     20   O  NGY C   1      28.275  17.453 102.4420  0.00  0.00     0.000 OA
ATOM     21   O  NGY C   1      28.677  19.741 101.7630  0.00  0.00     0.000 OA
ENDBRANCH 5 16
BRANCH 1 22
ATOM     22  O4  BDP C   2      21.896  19.204 101.3310  0.00  0.00     0.000 O
BRANCH 22 26
ATOM     23  C1  BDP C   2      20.073  15.975  99.5370  0.00  0.00     0.000 C
ATOM     24  C2  BDP C   2      19.289  16.628 100.6520  0.00  0.00     0.000 C
ATOM     25  C3  BDP C   2      19.879  17.978 100.9610  0.00  0.00     0.000 C
ATOM     26  C4  BDP C   2      21.375  17.852 101.2330  0.00  0.00     0.000 C
ATOM     27  C5  BDP C   2      22.031  17.027 100.1340  0.00  0.00     0.000 C
ATOM     28  O5  BDP C   2      21.433  15.714  99.9850  0.00  0.00     0.000 O
ATOM     29   O  BDP C   2      17.946  16.927 100.2700  0.00  0.00     0.000 O
ATOM     31  HD  BDP C   2      17.605  17.655 100.5920  0.00  0.00     0.000 HD
ATOM     31   O  BDP C   2      19.212  18.466 102.1190  0.00  0.00     0.000 O
ATOM     33  HD  BDP C   2      18.871  19.194 102.4410  0.00  0.00     0.000 HD
BRANCH 27 33
ATOM     33   C  BDP C   2      23.498  16.781 100.3940  0.00  0.00     0.000 C
ATOM     34   O  BDP C   2      24.367  16.925  99.5010  0.00  0.00     0.000 OA
ATOM     35   O  BDP C   2      23.834  16.398 101.5030  0.00  0.00     0.000 OA
ENDBRANCH 27 33
BRANCH 23 36
ATOM     36  O4  SGN C   3      19.563  14.810  99.0760  0.00  0.00     0.000 O
BRANCH 36 40
ATOM     37  C1  SGN C   3      18.772  12.512  95.6810  0.00  0.00     0.000 C
ATOM     38  C2  SGN C   3      20.194  12.461  96.2630  0.00  0.00     0.000 C
ATOM     39  C3  SGN C   3      20.202  12.975  97.6950  0.00  0.00     0.000 C
ATOM     40  C4  SGN C   3      19.620  14.372  97.7150  0.00  0.00     0.000 C
ATOM     41  C5  SGN C   3      18.235  14.332  97.1060  0.00  0.00     0.000 C
ATOM     42  O5  SGN C   3      18.314  13.853  95.7550  0.00  0.00     0.000 O
ATOM     43   O  SGN C   3      21.537  12.972  98.1860  0.00  0.00     0.000 O
ATOM     45  HD  SGN C   3      21.075  13.583  98.5910  0.00  0.00     0.000 HD
BRANCH 38 47
ATOM     45   N  SGN C   3      20.396  11.989  94.8810  0.00  0.00     0.000 N
ATOM     47  HD  SGN C   3      20.159  12.627  95.4160  0.00  0.00     0.000 HD
ATOM     47   S  SGN C   3      21.250  10.649  94.8270  0.00  0.00     0.000 S
ATOM     48   O  SGN C   3      22.583  10.866  95.2660  0.00  0.00     0.000 OA
ATOM     49   O  SGN C   3      20.499   9.657  95.5250  0.00  0.00     0.000 OA
ATOM     50   O  SGN C   3      21.291  10.381  93.3900  0.00  0.00     0.000 OA
ENDBRANCH 38 47
BRANCH 41 51
ATOM     51   C  SGN C   3      17.540  15.666  97.0710  0.00  0.00     0.000 C
ATOM     52   O  SGN C   3      18.940  18.908  95.8840  0.00  0.00     0.000 OA
ATOM     53   O  SGN C   3      16.700  18.074  95.7480  0.00  0.00     0.000 OA
ATOM     54   O  SGN C   3      17.700  18.533  97.8820  0.00  0.00     0.000 OA
ATOM     55   O  SGN C   3      18.411  16.619  96.5030  0.00  0.00     0.000 O
ATOM     56   S  SGN C   3      17.888  18.179  96.5060  0.00  0.00     0.000 S
ENDBRANCH 41 51
BRANCH 37 57
ATOM     57  O4  IDS C   4      17.872  11.721  96.3160  0.00  0.00     0.000 O
BRANCH 57 61
ATOM     58  C1  IDS C   4      15.417   8.818  96.4410  0.00  0.00     0.000 C
ATOM     59  C2  IDS C   4      16.754   8.601  95.8060  0.00  0.00     0.000 C
ATOM     60  C3  IDS C   4      17.210   9.796  94.9630  0.00  0.00     0.000 C
ATOM     61  C4  IDS C   4      16.832  11.177  95.4810  0.00  0.00     0.000 C
ATOM     62  C5  IDS C   4      15.496  11.130  96.2300  0.00  0.00     0.000 C
ATOM     63  O5  IDS C   4      15.444  10.047  97.1470  0.00  0.00     0.000 O
ATOM     64   O  IDS C   4      16.602   9.612  93.6980  0.00  0.00     0.000 O
ATOM     66  HD  IDS C   4      16.012  10.229  93.5530  0.00  0.00     0.000 HD
BRANCH 59 66
ATOM     66   O  IDS C   4      17.805   8.377  96.8160  0.00  0.00     0.000 O
ATOM     67   S  IDS C   4      18.341   6.886  96.9660  0.00  0.00     0.000 S
ATOM     68   O  IDS C   4      18.969   6.633  95.6920  0.00  0.00     0.000 OA
ATOM     69   O  IDS C   4      19.247   6.927  98.0970  0.00  0.00     0.000 OA
ATOM     70   O  IDS C   4      17.182   6.031  97.1720  0.00  0.00     0.000 OA
ENDBRANCH 59 66
BRANCH 62 71
ATOM     71   C  IDS C   4      15.232  12.376  97.0540  0.00  0.00     0.000 C
ATOM     72   O  IDS C   4      15.282  12.327  98.2680  0.00  0.00     0.000 OA
ATOM     73   O  IDS C   4      14.866  13.412  96.4640  0.00  0.00     0.000 OA
ENDBRANCH 62 71
BRANCH 58 74
ATOM     74  O4  SGN C   5      14.349   8.529  95.6450  0.00  0.00     0.000 O
BRANCH 74 78
ATOM     75  C1  SGN C   5      10.413   7.142  95.4680  0.00  0.00     0.000 C
ATOM     76  C2  SGN C   5      10.627   8.474  96.2110  0.00  0.00     0.000 C
ATOM     77  C3  SGN C   5      12.022   9.041  95.9170  0.00  0.00     0.000 C
ATOM     78  C4  SGN C   5      13.104   7.983  96.0830  0.00  0.00     0.000 C
ATOM     79  C5  SGN C   5      12.742   6.754  95.2640  0.00  0.00     0.000 C
ATOM     80  O5  SGN C   5      11.469   6.224  95.7210  0.00  0.00     0.000 O
ATOM     81   O  SGN C   5      12.264  10.145  96.7840  0.00  0.00     0.000 O
ATOM     83  HD  SGN C   5      11.634  10.697  97.0030  0.00  0.00     0.000 HD
BRANCH 76 85
ATOM     83   N  SGN C   5       9.198   8.509  96.5470  0.00  0.00     0.000 N
ATOM     85  HD  SGN C   5       8.377   8.731  96.3840  0.00  0.00     0.000 HD
ATOM     85   S  SGN C   5       8.139   9.712  96.3840  0.00  0.00     0.000 S
ATOM     86   O  SGN C   5       6.844   9.293  96.7960  0.00  0.00     0.000 OA
ATOM     87   O  SGN C   5       8.689  10.846  97.0350  0.00  0.00     0.000 OA
ATOM     88   O  SGN C   5       8.217   9.795  94.8610  0.00  0.00     0.000 OA
ENDBRANCH 76 85
BRANCH 79 89
ATOM     89   C  SGN C   5      13.775   5.648  95.3450  0.00  0.00     0.000 C
ATOM     90   O  SGN C   5      13.980   5.071  94.0320  0.00  0.00     0.000 O
ATOM     91   S  SGN C   5      15.447   4.505  93.7140  0.00  0.00     0.000 S
ATOM     92   O  SGN C   5      16.368   5.569  94.0180  0.00  0.00     0.000 OA
ATOM     93   O  SGN C   5      15.646   3.350  94.5520  0.00  0.00     0.000 OA
ATOM     94   O  SGN C   5      15.382   4.186  92.3140  0.00  0.00     0.000 OA
ENDBRANCH 79 89
BRANCH 75 95
ATOM     95  O4  BDP C   6      10.388   7.457  94.1390  0.00  0.00     0.000 O
BRANCH 95 99
ATOM     96  C1  BDP C   6       8.227   5.620  90.9140  0.00  0.00     0.000 C
ATOM     97  C2  BDP C   6       7.628   5.593  92.2910  0.00  0.00     0.000 C
ATOM     98  C3  BDP C   6       8.264   6.583  93.2790  0.00  0.00     0.000 C
ATOM     99  C4  BDP C   6       9.783   6.492  93.2520  0.00  0.00     0.000 C
ATOM    100  C5  BDP C   6      10.240   6.570  91.7760  0.00  0.00     0.000 C
ATOM    101  O5  BDP C   6       9.607   5.433  91.1670  0.00  0.00     0.000 O
BRANCH 100 102
ATOM    102   C  BDP C   6      11.731   6.411  91.6200  0.00  0.00     0.000 C
ATOM    103   O  BDP C   6      12.530   7.292  91.9670  0.00  0.00     0.000 OA
ATOM    104   O  BDP C   6      12.131   5.346  91.1370  0.00  0.00     0.000 OA
ENDBRANCH 100 102
ENDBRANCH 95 99
ENDBRANCH 75 95
ENDBRANCH 74 78
ENDBRANCH 58 74
ENDBRANCH 57 61
ENDBRANCH 37 57
ENDBRANCH 36 40
ENDBRANCH 23 36
ENDBRANCH 22 26
ENDBRANCH 1 22
TORSDOF 20
ENDMDL
MODEL 82
REMARK VINA RESULT:      -0.8     52.875     58.320
ROOT
ATOM      1  C1  NGY C   1      13.975  31.151  77.2630  0.00  0.00     0.000 C
ATOM      2  C2  NGY C   1      12.701  31.835  76.7870  0.00  0.00     0.000 C
ATOM      3  C3  NGY C   1      11.518  31.412  77.6520  0.00  0.00     0.000 C
ATOM      4  C4  NGY C   1      11.444  29.897  77.6480  0.00  0.00     0.000 C
ATOM      5  C5  NGY C   1      12.744  29.341  78.2230  0.00  0.00     0.000 C
ATOM      6  O5  NGY C   1      13.835  29.749  77.3560  0.00  0.00     0.000 O
ATOM      7   O  NGY C   1      10.332  32.006  77.1440  0.00  0.00     0.000 O
ATOM      9  HD  NGY C   1      10.000  32.204  76.3700  0.00  0.00     0.000 HD
ATOM      9   O  NGY C   1      10.338  29.440  78.4120  0.00  0.00     0.000 O
ATOM     11  HD  NGY C   1      10.006  29.638  77.6380  0.00  0.00     0.000 HD
ENDROOT
BRANCH 2 13
ATOM     11   N  NGY C   1      13.118  33.212  76.6650  0.00  0.00     0.000 N
ATOM     13  HD  NGY C   1      12.572  33.464  76.0430  0.00  0.00     0.000 HD
ATOM     13   C  NGY C   1      12.545  34.041  75.7940  0.00  0.00     0.000 C
ATOM     14   O  NGY C   1      11.737  33.629  74.9600  0.00  0.00     0.000 OA
ATOM     15   C  NGY C   1      12.913  35.490  75.9010  0.00  0.00     0.000 C
ENDBRANCH 2 13
BRANCH 5 16
ATOM     16   C  NGY C   1      12.821  27.850  78.2940  0.00  0.00     0.000 C
ATOM     17   O  NGY C   1      13.296  25.679  75.3750  0.00  0.00     0.000 OA
ATOM     18   O  NGY C   1      12.791  27.324  76.9640  0.00  0.00     0.000 O
ATOM     19   S  NGY C   1      13.303  25.847  76.8060  0.00  0.00     0.000 S
ATOM     20   O  NGY C   1      12.349  24.993  77.4620  0.00  0.00     0.000 OA
ATOM     21   O  NGY C   1      14.614  25.845  77.4350  0.00  0.00     0.000 OA
ENDBRANCH 5 16
BRANCH 1 22
ATOM     22  O4  BDP C   2      14.361  31.713  78.4280  0.00  0.00     0.000 O
BRANCH 22 26
ATOM     23  C1  BDP C   2      17.277  32.861  81.1000  0.00  0.00     0.000 C
ATOM     24  C2  BDP C   2      17.364  33.494  79.7320  0.00  0.00     0.000 C
ATOM     25  C3  BDP C   2      16.067  33.285  78.9940  0.00  0.00     0.000 C
ATOM     26  C4  BDP C   2      15.700  31.805  78.9820  0.00  0.00     0.000 C
ATOM     27  C5  BDP C   2      15.816  31.231  80.3880  0.00  0.00     0.000 C
ATOM     28  O5  BDP C   2      17.135  31.419  80.9630  0.00  0.00     0.000 O
ATOM     29   O  BDP C   2      17.488  34.915  79.7960  0.00  0.00     0.000 O
ATOM     31  HD  BDP C   2      17.088  35.368  79.1760  0.00  0.00     0.000 HD
ATOM     31   O  BDP C   2      16.267  33.750  77.6650  0.00  0.00     0.000 O
ATOM     33  HD  BDP C   2      15.867  34.202  77.0450  0.00  0.00     0.000 HD
BRANCH 27 33
ATOM     33   C  BDP C   2      15.560  29.744  80.4280  0.00  0.00     0.000 C
ATOM     34   O  BDP C   2      14.745  29.230  81.2320  0.00  0.00     0.000 OA
ATOM     35   O  BDP C   2      16.195  29.025  79.6750  0.00  0.00     0.000 OA
ENDBRANCH 27 33
BRANCH 23 36
ATOM     36  O4  SGN C   3      18.333  33.092  81.9140  0.00  0.00     0.000 O
BRANCH 36 40
ATOM     37  C1  SGN C   3      19.537  33.993  85.8080  0.00  0.00     0.000 C
ATOM     38  C2  SGN C   3      19.229  32.524  85.4780  0.00  0.00     0.000 C
ATOM     39  C3  SGN C   3      19.239  32.303  83.9730  0.00  0.00     0.000 C
ATOM     40  C4  SGN C   3      18.255  33.258  83.3320  0.00  0.00     0.000 C
ATOM     41  C5  SGN C   3      18.619  34.672  83.7280  0.00  0.00     0.000 C
ATOM     42  O5  SGN C   3      18.571  34.803  85.1570  0.00  0.00     0.000 O
ATOM     43   O  SGN C   3      18.894  30.952  83.6940  0.00  0.00     0.000 O
ATOM     45  HD  SGN C   3      18.669  31.457  83.0280  0.00  0.00     0.000 HD
BRANCH 38 47
ATOM     45   N  SGN C   3      19.131  32.561  86.9480  0.00  0.00     0.000 N
ATOM     47  HD  SGN C   3      18.837  32.835  86.1810  0.00  0.00     0.000 HD
ATOM     47   S  SGN C   3      19.940  31.374  87.6300  0.00  0.00     0.000 S
ATOM     48   O  SGN C   3      19.365  30.113  87.3250  0.00  0.00     0.000 OA
ATOM     49   O  SGN C   3      21.309  31.557  87.2760  0.00  0.00     0.000 OA
ATOM     50   O  SGN C   3      19.711  31.637  89.0500  0.00  0.00     0.000 OA
ENDBRANCH 38 47
BRANCH 41 51
ATOM     51   C  SGN C   3      17.713  35.725  83.1490  0.00  0.00     0.000 C
ATOM     52   O  SGN C   3      13.988  35.735  83.1310  0.00  0.00     0.000 OA
ATOM     53   O  SGN C   3      15.516  37.570  83.3030  0.00  0.00     0.000 OA
ATOM     54   O  SGN C   3      15.428  36.244  81.3040  0.00  0.00     0.000 OA
ATOM     55   O  SGN C   3      16.374  35.363  83.4010  0.00  0.00     0.000 O
ATOM     56   S  SGN C   3      15.220  36.318  82.7190  0.00  0.00     0.000 S
ENDBRANCH 41 51
BRANCH 37 57
ATOM     57  O4  IDS C   4      20.768  34.413  85.4270  0.00  0.00     0.000 O
BRANCH 57 61
ATOM     58  C1  IDS C   4      24.273  35.770  86.0170  0.00  0.00     0.000 C
ATOM     59  C2  IDS C   4      23.838  34.552  86.7690  0.00  0.00     0.000 C
ATOM     60  C3  IDS C   4      22.386  34.637  87.2450  0.00  0.00     0.000 C
ATOM     61  C4  IDS C   4      21.406  35.345  86.3200  0.00  0.00     0.000 C
ATOM     62  C5  IDS C   4      22.108  36.462  85.5380  0.00  0.00     0.000 C
ATOM     63  O5  IDS C   4      23.338  36.022  84.9810  0.00  0.00     0.000 O
ATOM     64   O  IDS C   4      22.437  35.348  88.4680  0.00  0.00     0.000 O
ATOM     66  HD  IDS C   4      22.050  36.118  88.3880  0.00  0.00     0.000 HD
BRANCH 59 66
ATOM     66   O  IDS C   4      23.934  33.337  85.9360  0.00  0.00     0.000 O
ATOM     67   S  IDS C   4      25.039  32.272  86.3580  0.00  0.00     0.000 S
ATOM     68   O  IDS C   4      24.583  31.820  87.6500  0.00  0.00     0.000 OA
ATOM     69   O  IDS C   4      25.006  31.268  85.3130  0.00  0.00     0.000 OA
ATOM     70   O  IDS C   4      26.306  32.981  86.4530  0.00  0.00     0.000 OA
ENDBRANCH 59 66
BRANCH 62 71
ATOM     71   C  IDS C   4      21.289  36.972  84.3670  0.00  0.00     0.000 C
ATOM     72   O  IDS C   4      20.320  37.680  84.5630  0.00  0.00     0.000 OA
ATOM     73   O  IDS C   4      21.572  36.565  83.2220  0.00  0.00     0.000 OA
ENDBRANCH 62 71
BRANCH 58 74
ATOM     74  O4  SGN C   5      24.701  36.804  86.7950  0.00  0.00     0.000 O
BRANCH 74 78
ATOM     75  C1  SGN C   5      27.463  39.902  87.2630  0.00  0.00     0.000 C
ATOM     76  C2  SGN C   5      26.382  40.117  86.1870  0.00  0.00     0.000 C
ATOM     77  C3  SGN C   5      25.249  39.094  86.3440  0.00  0.00     0.000 C
ATOM     78  C4  SGN C   5      25.789  37.679  86.4980  0.00  0.00     0.000 C
ATOM     79  C5  SGN C   5      26.820  37.648  87.6160  0.00  0.00     0.000 C
ATOM     80  O5  SGN C   5      27.910  38.553  87.2950  0.00  0.00     0.000 O
ATOM     81   O  SGN C   5      24.389  39.180  85.2120  0.00  0.00     0.000 O
ATOM     83  HD  SGN C   5      24.208  39.939  84.8350  0.00  0.00     0.000 HD
BRANCH 76 85
ATOM     83   N  SGN C   5      26.101  41.520  86.5150  0.00  0.00     0.000 N
ATOM     85  HD  SGN C   5      25.816  42.313  86.3130  0.00  0.00     0.000 HD
ATOM     85   S  SGN C   5      26.330  42.844  85.6270  0.00  0.00     0.000 S
ATOM     86   O  SGN C   5      25.872  43.995  86.3240  0.00  0.00     0.000 OA
ATOM     87   O  SGN C   5      27.687  42.839  85.2100  0.00  0.00     0.000 OA
ATOM     88   O  SGN C   5      25.357  42.467  84.5130  0.00  0.00     0.000 OA
ENDBRANCH 76 85
BRANCH 79 89
ATOM     89   C  SGN C   5      27.402  36.271  87.8640  0.00  0.00     0.000 C
ATOM     90   O  SGN C   5      27.723  36.121  89.2690  0.00  0.00     0.000 O
ATOM     91   S  SGN C   5      27.601  34.643  89.8820  0.00  0.00     0.000 S
ATOM     92   O  SGN C   5      26.282  34.172  89.5470  0.00  0.00     0.000 OA
ATOM     93   O  SGN C   5      28.639  33.847  89.2800  0.00  0.00     0.000 OA
ATOM     94   O  SGN C   5      27.792  34.853  91.2920  0.00  0.00     0.000 OA
ENDBRANCH 79 89
BRANCH 75 95
ATOM     95  O4  BDP C   6      26.870  40.217  88.4530  0.00  0.00     0.000 O
BRANCH 95 99
ATOM     96  C1  BDP C   6      28.549  42.117  91.9200  0.00  0.00     0.000 C
ATOM     97  C2  BDP C   6      29.136  42.428  90.5720  0.00  0.00     0.000 C
ATOM     98  C3  BDP C   6      28.250  42.018  89.3860  0.00  0.00     0.000 C
ATOM     99  C4  BDP C   6      27.747  40.590  89.5380  0.00  0.00     0.000 C
ATOM    100  C5  BDP C   6      27.146  40.444  90.9560  0.00  0.00     0.000 C
ATOM    101  O5  BDP C   6      28.254  40.736  91.8230  0.00  0.00     0.000 O
BRANCH 100 102
ATOM    102   C  BDP C   6      26.683  39.040  91.2500  0.00  0.00     0.000 C
ATOM    103   O  BDP C   6      27.414  38.203  91.7990  0.00  0.00     0.000 OA
ATOM    104   O  BDP C   6      25.524  38.754  90.9270  0.00  0.00     0.000 OA
ENDBRANCH 100 102
ENDBRANCH 95 99
ENDBRANCH 75 95
ENDBRANCH 74 78
ENDBRANCH 58 74
ENDBRANCH 57 61
ENDBRANCH 37 57
ENDBRANCH 36 40
ENDBRANCH 23 36
ENDBRANCH 22 26
ENDBRANCH 1 22
TORSDOF 20
ENDMDL
MODEL 83
REMARK VINA RESULT:      -0.8     81.921     85.371
ROOT
ATOM      1  C1  NGY C   1      96.845  28.476  55.9130  0.00  0.00     0.000 C
ATOM      2  C2  NGY C   1      96.954  29.557  56.9800  0.00  0.00     0.000 C
ATOM      3  C3  NGY C   1      98.140  29.277  57.8960  0.00  0.00     0.000 C
ATOM      4  C4  NGY C   1      97.993  27.874  58.4510  0.00  0.00     0.000 C
ATOM      5  C5  NGY C   1      97.980  26.886  57.2880  0.00  0.00     0.000 C
ATOM      6  O5  NGY C   1      96.824  27.174  56.4590  0.00  0.00     0.000 O
ATOM      7   O  NGY C   1      98.177  30.257  58.9240  0.00  0.00     0.000 O
ATOM      9  HD  NGY C   1      97.607  30.700  59.4030  0.00  0.00     0.000 HD
ATOM      9   O  NGY C   1      99.055  27.565  59.3420  0.00  0.00     0.000 O
ATOM     11  HD  NGY C   1      98.485  28.008  59.8210  0.00  0.00     0.000 HD
ENDROOT
BRANCH 2 13
ATOM     11   N  NGY C   1      96.805  30.758  56.1920  0.00  0.00     0.000 N
ATOM     13  HD  NGY C   1      96.500  31.285  56.8080  0.00  0.00     0.000 HD
ATOM     13   C  NGY C   1      96.344  31.889  56.7240  0.00  0.00     0.000 C
ATOM     14   O  NGY C   1      95.892  31.916  57.8700  0.00  0.00     0.000 OA
ATOM     15   C  NGY C   1      96.430  33.118  55.8710  0.00  0.00     0.000 C
ENDBRANCH 2 13
BRANCH 5 16
ATOM     16   C  NGY C   1      97.849  25.448  57.6770  0.00  0.00     0.000 C
ATOM     17   O  NGY C   1      95.562  23.085  56.0520  0.00  0.00     0.000 OA
ATOM     18   O  NGY C   1      96.727  24.887  56.9920  0.00  0.00     0.000 O
ATOM     19   S  NGY C   1      96.692  23.318  56.9150  0.00  0.00     0.000 S
ATOM     20   O  NGY C   1      96.470  22.831  58.2510  0.00  0.00     0.000 OA
ATOM     21   O  NGY C   1      97.988  22.949  56.3700  0.00  0.00     0.000 OA
ENDBRANCH 5 16
BRANCH 1 22
ATOM     22  O4  BDP C   2      97.841  28.648  55.0180  0.00  0.00     0.000 O
BRANCH 22 26
ATOM     23  C1  BDP C   2      99.400  28.301  51.2210  0.00  0.00     0.000 C
ATOM     24  C2  BDP C   2      98.249  29.269  51.3650  0.00  0.00     0.000 C
ATOM     25  C3  BDP C   2      98.023  29.573  52.8230  0.00  0.00     0.000 C
ATOM     26  C4  BDP C   2      97.861  28.278  53.6140  0.00  0.00     0.000 C
ATOM     27  C5  BDP C   2      98.982  27.311  53.2570  0.00  0.00     0.000 C
ATOM     28  O5  BDP C   2      99.048  27.029  51.8350  0.00  0.00     0.000 O
ATOM     29   O  BDP C   2      98.538  30.546  50.7960  0.00  0.00     0.000 O
ATOM     31  HD  BDP C   2      98.213  31.236  51.2070  0.00  0.00     0.000 HD
ATOM     31   O  BDP C   2      96.834  30.348  52.9050  0.00  0.00     0.000 O
ATOM     33  HD  BDP C   2      96.509  31.037  53.3160  0.00  0.00     0.000 HD
BRANCH 27 33
ATOM     33   C  BDP C   2      98.824  25.970  53.9330  0.00  0.00     0.000 C
ATOM     34   O  BDP C   2      99.767  25.423  54.5540  0.00  0.00     0.000 OA
ATOM     35   O  BDP C   2      97.753  25.394  53.8380  0.00  0.00     0.000 OA
ENDBRANCH 27 33
BRANCH 23 36
ATOM     36  O4  SGN C   3      99.788  28.048  49.9500  0.00  0.00     0.000 O
BRANCH 36 40
ATOM     37  C1  SGN C   3     103.051  27.536  47.3960  0.00  0.00     0.000 C
ATOM     38  C2  SGN C   3     102.588  26.321  48.2150  0.00  0.00     0.000 C
ATOM     39  C3  SGN C   3     101.174  26.536  48.7340  0.00  0.00     0.000 C
ATOM     40  C4  SGN C   3     101.138  27.820  49.5360  0.00  0.00     0.000 C
ATOM     41  C5  SGN C   3     101.630  28.953  48.6630  0.00  0.00     0.000 C
ATOM     42  O5  SGN C   3     102.971  28.683  48.2270  0.00  0.00     0.000 O
ATOM     43   O  SGN C   3     100.794  25.425  49.5360  0.00  0.00     0.000 O
ATOM     45  HD  SGN C   3     100.367  26.133  49.7930  0.00  0.00     0.000 HD
BRANCH 38 47
ATOM     45   N  SGN C   3     103.494  25.208  48.5520  0.00  0.00     0.000 N
ATOM     47  HD  SGN C   3     102.893  25.775  48.8110  0.00  0.00     0.000 HD
ATOM     47   S  SGN C   3     104.062  24.487  47.2550  0.00  0.00     0.000 S
ATOM     48   O  SGN C   3     103.031  23.825  46.5360  0.00  0.00     0.000 OA
ATOM     49   O  SGN C   3     104.815  25.465  46.5400  0.00  0.00     0.000 OA
ATOM     50   O  SGN C   3     104.927  23.463  47.8390  0.00  0.00     0.000 OA
ENDBRANCH 38 47
BRANCH 41 51
ATOM     51   C  SGN C   3     101.639  30.295  49.3440  0.00  0.00     0.000 C
ATOM     52   O  SGN C   3     103.051  31.114  52.6930  0.00  0.00     0.000 OA
ATOM     53   O  SGN C   3     102.949  32.455  50.7120  0.00  0.00     0.000 OA
ATOM     54   O  SGN C   3     100.934  31.783  51.8310  0.00  0.00     0.000 OA
ATOM     55   O  SGN C   3     102.316  30.176  50.5750  0.00  0.00     0.000 O
ATOM     56   S  SGN C   3     102.310  31.507  51.5430  0.00  0.00     0.000 S
ENDBRANCH 41 51
BRANCH 37 57
ATOM     57  O4  IDS C   4     102.326  27.773  46.2760  0.00  0.00     0.000 O
BRANCH 57 61
ATOM     58  C1  IDS C   4     102.410  28.036  42.4820  0.00  0.00     0.000 C
ATOM     59  C2  IDS C   4     103.417  27.165  43.1640  0.00  0.00     0.000 C
ATOM     60  C3  IDS C   4     103.957  27.784  44.4550  0.00  0.00     0.000 C
ATOM     61  C4  IDS C   4     102.972  28.595  45.2850  0.00  0.00     0.000 C
ATOM     62  C5  IDS C   4     101.939  29.283  44.3840  0.00  0.00     0.000 C
ATOM     63  O5  IDS C   4     101.406  28.389  43.4180  0.00  0.00     0.000 O
ATOM     64   O  IDS C   4     105.007  28.641  44.0470  0.00  0.00     0.000 O
ATOM     66  HD  IDS C   4     104.798  29.468  44.1940  0.00  0.00     0.000 HD
BRANCH 59 66
ATOM     66   O  IDS C   4     102.841  25.858  43.5360  0.00  0.00     0.000 O
ATOM     67   S  IDS C   4     103.454  24.580  42.8150  0.00  0.00     0.000 S
ATOM     68   O  IDS C   4     104.815  24.553  43.2950  0.00  0.00     0.000 OA
ATOM     69   O  IDS C   4     102.630  23.471  43.2540  0.00  0.00     0.000 OA
ATOM     70   O  IDS C   4     103.396  24.824  41.3820  0.00  0.00     0.000 OA
ENDBRANCH 59 66
BRANCH 62 71
ATOM     71   C  IDS C   4     100.744  29.817  45.1510  0.00  0.00     0.000 C
ATOM     72   O  IDS C   4      99.654  29.292  45.0240  0.00  0.00     0.000 OA
ATOM     73   O  IDS C   4     100.886  30.858  45.8220  0.00  0.00     0.000 OA
ENDBRANCH 62 71
BRANCH 58 74
ATOM     74  O4  SGN C   5     102.937  29.000  41.6740  0.00  0.00     0.000 O
BRANCH 74 78
ATOM     75  C1  SGN C   5     102.620  31.077  38.0650  0.00  0.00     0.000 C
ATOM     76  C2  SGN C   5     101.546  31.392  39.1220  0.00  0.00     0.000 C
ATOM     77  C3  SGN C   5     101.957  30.843  40.4950  0.00  0.00     0.000 C
ATOM     78  C4  SGN C   5     102.424  29.397  40.4030  0.00  0.00     0.000 C
ATOM     79  C5  SGN C   5     103.498  29.277  39.3310  0.00  0.00     0.000 C
ATOM     80  O5  SGN C   5     102.954  29.696  38.0510  0.00  0.00     0.000 O
ATOM     81   O  SGN C   5     100.854  30.956  41.3880  0.00  0.00     0.000 O
ATOM     83  HD  SGN C   5     100.316  31.635  41.3610  0.00  0.00     0.000 HD
BRANCH 76 85
ATOM     83   N  SGN C   5     101.173  32.431  38.1530  0.00  0.00     0.000 N
ATOM     85  HD  SGN C   5     101.073  33.257  37.9150  0.00  0.00     0.000 HD
ATOM     85   S  SGN C   5     100.372  33.808  38.3870  0.00  0.00     0.000 S
ATOM     86   O  SGN C   5     100.272  34.538  37.1710  0.00  0.00     0.000 OA
ATOM     87   O  SGN C   5      99.158  33.479  39.0450  0.00  0.00     0.000 OA
ATOM     88   O  SGN C   5     101.404  34.445  39.3140  0.00  0.00     0.000 OA
ENDBRANCH 76 85
BRANCH 79 89
ATOM     89   C  SGN C   5     104.046  27.873  39.1800  0.00  0.00     0.000 C
ATOM     90   O  SGN C   5     103.291  27.158  38.1710  0.00  0.00     0.000 O
ATOM     91   S  SGN C   5     104.087  26.054  37.3210  0.00  0.00     0.000 S
ATOM     92   O  SGN C   5     105.257  26.710  36.7970  0.00  0.00     0.000 OA
ATOM     93   O  SGN C   5     104.416  24.981  38.2240  0.00  0.00     0.000 OA
ATOM     94   O  SGN C   5     103.142  25.672  36.3070  0.00  0.00     0.000 OA
ENDBRANCH 79 89
BRANCH 75 95
ATOM     95  O4  BDP C   6     103.717  31.811  38.4190  0.00  0.00     0.000 O
BRANCH 95 99
ATOM     96  C1  BDP C   6     106.895  33.526  36.0950  0.00  0.00     0.000 C
ATOM     97  C2  BDP C   6     105.481  33.683  35.6100  0.00  0.00     0.000 C
ATOM     98  C3  BDP C   6     104.411  33.386  36.6720  0.00  0.00     0.000 C
ATOM     99  C4  BDP C   6     104.690  32.070  37.3840  0.00  0.00     0.000 C
ATOM    100  C5  BDP C   6     106.165  32.082  37.8490  0.00  0.00     0.000 C
ATOM    101  O5  BDP C   6     106.903  32.213  36.6230  0.00  0.00     0.000 O
BRANCH 100 102
ATOM    102   C  BDP C   6     106.578  30.788  38.5030  0.00  0.00     0.000 C
ATOM    103   O  BDP C   6     106.782  30.698  39.7220  0.00  0.00     0.000 OA
ATOM    104   O  BDP C   6     106.696  29.802  37.7660  0.00  0.00     0.000 OA
ENDBRANCH 100 102
ENDBRANCH 95 99
ENDBRANCH 75 95
ENDBRANCH 74 78
ENDBRANCH 58 74
ENDBRANCH 57 61
ENDBRANCH 37 57
ENDBRANCH 36 40
ENDBRANCH 23 36
ENDBRANCH 22 26
ENDBRANCH 1 22
TORSDOF 20
ENDMDL
MODEL 84
REMARK VINA RESULT:      -0.8     54.359     64.002
ROOT
ATOM      1  C1  NGY C   1      49.704  14.708  84.9900  0.00  0.00     0.000 C
ATOM      2  C2  NGY C   1      48.437  13.992  85.4370  0.00  0.00     0.000 C
ATOM      3  C3  NGY C   1      48.185  14.241  86.9210  0.00  0.00     0.000 C
ATOM      4  C4  NGY C   1      49.429  13.837  87.6890  0.00  0.00     0.000 C
ATOM      5  C5  NGY C   1      50.602  14.684  87.2030  0.00  0.00     0.000 C
ATOM      6  O5  NGY C   1      50.818  14.396  85.7970  0.00  0.00     0.000 O
ATOM      7   O  NGY C   1      47.042  13.505  87.3310  0.00  0.00     0.000 O
ATOM      9  HD  NGY C   1      46.682  12.737  87.1550  0.00  0.00     0.000 HD
ATOM      9   O  NGY C   1      49.244  14.015  89.0860  0.00  0.00     0.000 O
ATOM     11  HD  NGY C   1      48.884  13.247  88.9100  0.00  0.00     0.000 HD
ENDROOT
BRANCH 2 13
ATOM     11   N  NGY C   1      47.491  14.371  84.4140  0.00  0.00     0.000 N
ATOM     13  HD  NGY C   1      46.974  13.677  84.4460  0.00  0.00     0.000 HD
ATOM     13   C  NGY C   1      46.466  13.586  84.0860  0.00  0.00     0.000 C
ATOM     14   O  NGY C   1      46.367  12.445  84.5400  0.00  0.00     0.000 OA
ATOM     15   C  NGY C   1      45.438  14.172  83.1670  0.00  0.00     0.000 C
ENDBRANCH 2 13
BRANCH 5 16
ATOM     16   C  NGY C   1      51.908  14.408  87.8780  0.00  0.00     0.000 C
ATOM     17   O  NGY C   1      53.284  16.453  90.5940  0.00  0.00     0.000 OA
ATOM     18   O  NGY C   1      52.230  15.513  88.7260  0.00  0.00     0.000 O
ATOM     19   S  NGY C   1      53.305  15.228  89.8360  0.00  0.00     0.000 S
ATOM     20   O  NGY C   1      54.562  15.018  89.1670  0.00  0.00     0.000 OA
ATOM     21   O  NGY C   1      52.811  14.049  90.5280  0.00  0.00     0.000 OA
ENDBRANCH 5 16
BRANCH 1 22
ATOM     22  O4  BDP C   2      49.456  16.034  84.9360  0.00  0.00     0.000 O
BRANCH 22 26
ATOM     23  C1  BDP C   2      50.035  19.744  83.2420  0.00  0.00     0.000 C
ATOM     24  C2  BDP C   2      49.632  18.648  82.2840  0.00  0.00     0.000 C
ATOM     25  C3  BDP C   2      49.105  17.468  83.0580  0.00  0.00     0.000 C
ATOM     26  C4  BDP C   2      50.113  17.039  84.1190  0.00  0.00     0.000 C
ATOM     27  C5  BDP C   2      50.581  18.254  84.9100  0.00  0.00     0.000 C
ATOM     28  O5  BDP C   2      51.146  19.289  84.0650  0.00  0.00     0.000 O
ATOM     29   O  BDP C   2      48.532  19.026  81.4570  0.00  0.00     0.000 O
ATOM     31  HD  BDP C   2      47.964  18.403  81.2590  0.00  0.00     0.000 HD
ATOM     31   O  BDP C   2      48.902  16.417  82.1230  0.00  0.00     0.000 O
ATOM     33  HD  BDP C   2      48.334  15.794  81.9250  0.00  0.00     0.000 HD
BRANCH 27 33
ATOM     33   C  BDP C   2      51.656  17.911  85.9130  0.00  0.00     0.000 C
ATOM     34   O  BDP C   2      52.649  17.207  85.6110  0.00  0.00     0.000 OA
ATOM     35   O  BDP C   2      51.527  18.307  87.0600  0.00  0.00     0.000 OA
ENDBRANCH 27 33
BRANCH 23 36
ATOM     36  O4  SGN C   3      50.405  20.911  82.6650  0.00  0.00     0.000 O
BRANCH 36 40
ATOM     37  C1  SGN C   3      50.161  25.074  82.8730  0.00  0.00     0.000 C
ATOM     38  C2  SGN C   3      51.211  24.375  83.7530  0.00  0.00     0.000 C
ATOM     39  C3  SGN C   3      51.469  22.962  83.2510  0.00  0.00     0.000 C
ATOM     40  C4  SGN C   3      50.157  22.209  83.2110  0.00  0.00     0.000 C
ATOM     41  C5  SGN C   3      49.181  22.977  82.3470  0.00  0.00     0.000 C
ATOM     42  O5  SGN C   3      48.978  24.290  82.8920  0.00  0.00     0.000 O
ATOM     43   O  SGN C   3      52.398  22.320  84.1170  0.00  0.00     0.000 O
ATOM     45  HD  SGN C   3      51.887  21.729  83.7430  0.00  0.00     0.000 HD
BRANCH 38 47
ATOM     45   N  SGN C   3      51.057  25.670  84.4390  0.00  0.00     0.000 N
ATOM     47  HD  SGN C   3      50.705  24.917  84.1950  0.00  0.00     0.000 HD
ATOM     47   S  SGN C   3      52.457  26.370  84.7140  0.00  0.00     0.000 S
ATOM     48   O  SGN C   3      53.233  25.630  85.6440  0.00  0.00     0.000 OA
ATOM     49   O  SGN C   3      53.048  26.616  83.4390  0.00  0.00     0.000 OA
ATOM     50   O  SGN C   3      52.046  27.612  85.3650  0.00  0.00     0.000 OA
ENDBRANCH 38 47
BRANCH 41 51
ATOM     51   C  SGN C   3      47.829  22.329  82.2200  0.00  0.00     0.000 C
ATOM     52   O  SGN C   3      45.707  20.982  84.9700  0.00  0.00     0.000 OA
ATOM     53   O  SGN C   3      45.058  22.042  82.9240  0.00  0.00     0.000 OA
ATOM     54   O  SGN C   3      46.193  19.926  82.8910  0.00  0.00     0.000 OA
ATOM     55   O  SGN C   3      47.354  22.010  83.5090  0.00  0.00     0.000 O
ATOM     56   S  SGN C   3      45.947  21.159  83.5780  0.00  0.00     0.000 S
ENDBRANCH 41 51
BRANCH 37 57
ATOM     57  O4  IDS C   4      50.532  25.249  81.5810  0.00  0.00     0.000 O
BRANCH 57 61
ATOM     58  C1  IDS C   4      51.344  27.339  78.5080  0.00  0.00     0.000 C
ATOM     59  C2  IDS C   4      52.016  27.673  79.8020  0.00  0.00     0.000 C
ATOM     60  C3  IDS C   4      51.075  27.562  81.0040  0.00  0.00     0.000 C
ATOM     61  C4  IDS C   4      50.038  26.449  80.9560  0.00  0.00     0.000 C
ATOM     62  C5  IDS C   4      49.602  26.174  79.5110  0.00  0.00     0.000 C
ATOM     63  O5  IDS C   4      50.715  26.075  78.6350  0.00  0.00     0.000 O
ATOM     64   O  IDS C   4      50.396  28.802  81.0610  0.00  0.00     0.000 O
ATOM     66  HD  IDS C   4      49.555  28.696  80.8840  0.00  0.00     0.000 HD
BRANCH 59 66
ATOM     66   O  IDS C   4      53.150  26.769  80.0730  0.00  0.00     0.000 O
ATOM     67   S  IDS C   4      54.604  27.411  79.9980  0.00  0.00     0.000 S
ATOM     68   O  IDS C   4      54.600  28.362  81.0830  0.00  0.00     0.000 OA
ATOM     69   O  IDS C   4      55.514  26.295  80.1670  0.00  0.00     0.000 OA
ATOM     70   O  IDS C   4      54.717  28.071  78.7060  0.00  0.00     0.000 OA
ENDBRANCH 59 66
BRANCH 62 71
ATOM     71   C  IDS C   4      48.843  24.870  79.3570  0.00  0.00     0.000 C
ATOM     72   O  IDS C   4      49.359  23.928  78.7880  0.00  0.00     0.000 OA
ATOM     73   O  IDS C   4      47.654  24.827  79.7320  0.00  0.00     0.000 OA
ENDBRANCH 62 71
BRANCH 58 74
ATOM     74  O4  SGN C   5      50.659  28.369  77.9330  0.00  0.00     0.000 O
BRANCH 74 78
ATOM     75  C1  SGN C   5      49.756  30.410  74.4030  0.00  0.00     0.000 C
ATOM     76  C2  SGN C   5      49.067  29.045  74.5890  0.00  0.00     0.000 C
ATOM     77  C3  SGN C   5      49.200  28.564  76.0400  0.00  0.00     0.000 C
ATOM     78  C4  SGN C   5      50.633  28.681  76.5400  0.00  0.00     0.000 C
ATOM     79  C5  SGN C   5      51.141  30.095  76.3000  0.00  0.00     0.000 C
ATOM     80  O5  SGN C   5      51.096  30.391  74.8790  0.00  0.00     0.000 O
ATOM     81   O  SGN C   5      48.750  27.215  76.1230  0.00  0.00     0.000 O
ATOM     83  HD  SGN C   5      48.078  26.931  75.6560  0.00  0.00     0.000 HD
BRANCH 76 85
ATOM     83   N  SGN C   5      47.926  28.395  73.9340  0.00  0.00     0.000 N
ATOM     85  HD  SGN C   5      47.436  28.221  73.2400  0.00  0.00     0.000 HD
ATOM     85   S  SGN C   5      46.917  28.978  72.8210  0.00  0.00     0.000 S
ATOM     86   O  SGN C   5      45.980  27.983  72.4300  0.00  0.00     0.000 OA
ATOM     87   O  SGN C   5      46.393  30.195  73.3280  0.00  0.00     0.000 OA
ATOM     88   O  SGN C   5      47.969  29.182  71.7340  0.00  0.00     0.000 OA
ENDBRANCH 76 85
BRANCH 79 89
ATOM     89   C  SGN C   5      52.558  30.319  76.7880  0.00  0.00     0.000 C
ATOM     90   O  SGN C   5      52.714  31.691  77.2250  0.00  0.00     0.000 O
ATOM     91   S  SGN C   5      53.756  31.954  78.4170  0.00  0.00     0.000 S
ATOM     92   O  SGN C   5      53.389  31.057  79.4820  0.00  0.00     0.000 OA
ATOM     93   O  SGN C   5      55.072  31.683  77.8980  0.00  0.00     0.000 OA
ATOM     94   O  SGN C   5      53.547  33.340  78.7390  0.00  0.00     0.000 OA
ENDBRANCH 79 89
BRANCH 75 95
ATOM     95  O4  BDP C   6      49.023  31.301  75.1350  0.00  0.00     0.000 O
BRANCH 95 99
ATOM     96  C1  BDP C   6      48.113  35.366  74.0890  0.00  0.00     0.000 C
ATOM     97  C2  BDP C   6      48.632  34.445  73.0210  0.00  0.00     0.000 C
ATOM     98  C3  BDP C   6      48.562  32.953  73.3820  0.00  0.00     0.000 C
ATOM     99  C4  BDP C   6      49.133  32.693  74.7680  0.00  0.00     0.000 C
ATOM    100  C5  BDP C   6      48.477  33.691  75.7500  0.00  0.00     0.000 C
ATOM    101  O5  BDP C   6      48.857  34.975  75.2280  0.00  0.00     0.000 O
BRANCH 100 102
ATOM    102   C  BDP C   6      49.028  33.577  77.1490  0.00  0.00     0.000 C
ATOM    103   O  BDP C   6      50.206  33.852  77.4210  0.00  0.00     0.000 OA
ATOM    104   O  BDP C   6      48.243  33.206  78.0300  0.00  0.00     0.000 OA
ENDBRANCH 100 102
ENDBRANCH 95 99
ENDBRANCH 75 95
ENDBRANCH 74 78
ENDBRANCH 58 74
ENDBRANCH 57 61
ENDBRANCH 37 57
ENDBRANCH 36 40
ENDBRANCH 23 36
ENDBRANCH 22 26
ENDBRANCH 1 22
TORSDOF 20
ENDMDL
MODEL 85
REMARK VINA RESULT:      -0.8     57.661     62.769
ROOT
ATOM      1  C1  NGY C   1      57.894  44.879  74.2700  0.00  0.00     0.000 C
ATOM      2  C2  NGY C   1      59.302  45.457  74.2790  0.00  0.00     0.000 C
ATOM      3  C3  NGY C   1      59.847  45.544  72.8570  0.00  0.00     0.000 C
ATOM      4  C4  NGY C   1      59.748  44.168  72.2250  0.00  0.00     0.000 C
ATOM      5  C5  NGY C   1      58.282  43.744  72.2040  0.00  0.00     0.000 C
ATOM      6  O5  NGY C   1      57.816  43.652  73.5760  0.00  0.00     0.000 O
ATOM      7   O  NGY C   1      61.186  46.017  72.8980  0.00  0.00     0.000 O
ATOM      9  HD  NGY C   1      61.877  45.929  73.4120  0.00  0.00     0.000 HD
ATOM      9   O  NGY C   1      60.273  44.176  70.9060  0.00  0.00     0.000 O
ATOM     11  HD  NGY C   1      60.965  44.088  71.4200  0.00  0.00     0.000 HD
ENDROOT
BRANCH 2 13
ATOM     11   N  NGY C   1      59.157  46.628  75.1120  0.00  0.00     0.000 N
ATOM     13  HD  NGY C   1      59.960  46.663  75.4350  0.00  0.00     0.000 HD
ATOM     13   C  NGY C   1      60.169  47.095  75.8430  0.00  0.00     0.000 C
ATOM     14   O  NGY C   1      61.223  46.466  75.9470  0.00  0.00     0.000 OA
ATOM     15   C  NGY C   1      59.966  48.426  76.5000  0.00  0.00     0.000 C
ENDBRANCH 2 13
BRANCH 5 16
ATOM     16   C  NGY C   1      58.018  42.403  71.5980  0.00  0.00     0.000 C
ATOM     17   O  NGY C   1      56.445  41.909  68.3210  0.00  0.00     0.000 OA
ATOM     18   O  NGY C   1      57.208  42.577  70.4320  0.00  0.00     0.000 O
ATOM     19   S  NGY C   1      57.198  41.371  69.4250  0.00  0.00     0.000 S
ATOM     20   O  NGY C   1      56.517  40.281  70.0730  0.00  0.00     0.000 OA
ATOM     21   O  NGY C   1      58.603  41.103  69.1610  0.00  0.00     0.000 OA
ENDBRANCH 5 16
BRANCH 1 22
ATOM     22  O4  BDP C   2      57.046  45.808  73.7820  0.00  0.00     0.000 O
BRANCH 22 26
ATOM     23  C1  BDP C   2      53.377  47.680  73.7630  0.00  0.00     0.000 C
ATOM     24  C2  BDP C   2      54.047  47.577  75.1130  0.00  0.00     0.000 C
ATOM     25  C3  BDP C   2      55.499  47.219  74.9300  0.00  0.00     0.000 C
ATOM     26  C4  BDP C   2      55.631  45.971  74.0640  0.00  0.00     0.000 C
ATOM     27  C5  BDP C   2      54.775  46.117  72.8130  0.00  0.00     0.000 C
ATOM     28  O5  BDP C   2      53.380  46.376  73.1160  0.00  0.00     0.000 O
ATOM     29   O  BDP C   2      54.093  48.830  75.7950  0.00  0.00     0.000 O
ATOM     31  HD  BDP C   2      54.798  48.986  76.2720  0.00  0.00     0.000 HD
ATOM     31   O  BDP C   2      56.030  46.973  76.2260  0.00  0.00     0.000 O
ATOM     33  HD  BDP C   2      56.736  47.129  76.7040  0.00  0.00     0.000 HD
BRANCH 27 33
ATOM     33   C  BDP C   2      54.784  44.872  71.9590  0.00  0.00     0.000 C
ATOM     34   O  BDP C   2      54.646  43.726  72.4500  0.00  0.00     0.000 OA
ATOM     35   O  BDP C   2      54.967  44.993  70.7590  0.00  0.00     0.000 OA
ENDBRANCH 27 33
BRANCH 23 36
ATOM     36  O4  SGN C   3      52.099  48.124  73.7830  0.00  0.00     0.000 O
BRANCH 36 40
ATOM     37  C1  SGN C   3      49.275  50.557  71.9030  0.00  0.00     0.000 C
ATOM     38  C2  SGN C   3      49.531  49.165  71.3020  0.00  0.00     0.000 C
ATOM     39  C3  SGN C   3      50.225  48.267  72.3170  0.00  0.00     0.000 C
ATOM     40  C4  SGN C   3      51.500  48.942  72.7750  0.00  0.00     0.000 C
ATOM     41  C5  SGN C   3      51.157  50.309  73.3270  0.00  0.00     0.000 C
ATOM     42  O5  SGN C   3      50.522  51.098  72.3090  0.00  0.00     0.000 O
ATOM     43   O  SGN C   3      50.503  47.009  71.7160  0.00  0.00     0.000 O
ATOM     45  HD  SGN C   3      51.079  47.170  72.3420  0.00  0.00     0.000 HD
BRANCH 38 47
ATOM     45   N  SGN C   3      48.881  49.914  70.2120  0.00  0.00     0.000 N
ATOM     47  HD  SGN C   3      49.544  49.841  70.7650  0.00  0.00     0.000 HD
ATOM     47   S  SGN C   3      47.739  49.066  69.5030  0.00  0.00     0.000 S
ATOM     48   O  SGN C   3      48.277  47.945  68.8160  0.00  0.00     0.000 OA
ATOM     49   O  SGN C   3      46.754  48.795  70.4980  0.00  0.00     0.000 OA
ATOM     50   O  SGN C   3      47.247  50.009  68.5010  0.00  0.00     0.000 OA
ENDBRANCH 38 47
BRANCH 41 51
ATOM     51   C  SGN C   3      52.345  51.087  73.8240  0.00  0.00     0.000 C
ATOM     52   O  SGN C   3      55.582  51.632  72.0620  0.00  0.00     0.000 OA
ATOM     53   O  SGN C   3      54.387  53.088  73.5410  0.00  0.00     0.000 OA
ATOM     54   O  SGN C   3      55.282  51.008  74.3410  0.00  0.00     0.000 OA
ATOM     55   O  SGN C   3      53.341  51.086  72.8260  0.00  0.00     0.000 O
ATOM     56   S  SGN C   3      54.783  51.767  73.2330  0.00  0.00     0.000 S
ENDBRANCH 41 51
BRANCH 37 57
ATOM     57  O4  IDS C   4      48.440  50.567  72.9710  0.00  0.00     0.000 O
BRANCH 57 61
ATOM     58  C1  IDS C   4      45.210  51.543  74.7270  0.00  0.00     0.000 C
ATOM     59  C2  IDS C   4      45.137  51.016  73.3290  0.00  0.00     0.000 C
ATOM     60  C3  IDS C   4      46.264  51.543  72.4380  0.00  0.00     0.000 C
ATOM     61  C4  IDS C   4      47.619  51.744  73.1010  0.00  0.00     0.000 C
ATOM     62  C5  IDS C   4      47.451  52.135  74.5730  0.00  0.00     0.000 C
ATOM     63  O5  IDS C   4      46.511  51.302  75.2360  0.00  0.00     0.000 O
ATOM     64   O  IDS C   4      45.809  52.798  71.9650  0.00  0.00     0.000 O
ATOM     66  HD  IDS C   4      46.291  53.438  72.2930  0.00  0.00     0.000 HD
BRANCH 59 66
ATOM     66   O  IDS C   4      45.234  49.544  73.2990  0.00  0.00     0.000 O
ATOM     67   S  IDS C   4      43.901  48.751  72.9420  0.00  0.00     0.000 S
ATOM     68   O  IDS C   4      43.636  49.150  71.5800  0.00  0.00     0.000 OA
ATOM     69   O  IDS C   4      44.241  47.353  73.1140  0.00  0.00     0.000 OA
ATOM     70   O  IDS C   4      42.865  49.221  73.8490  0.00  0.00     0.000 OA
ENDBRANCH 59 66
BRANCH 62 71
ATOM     71   C  IDS C   4      48.736  52.015  75.3710  0.00  0.00     0.000 C
ATOM     72   O  IDS C   4      49.646  52.800  75.1840  0.00  0.00     0.000 OA
ATOM     73   O  IDS C   4      48.872  51.040  76.1360  0.00  0.00     0.000 OA
ENDBRANCH 62 71
BRANCH 58 74
ATOM     74  O4  SGN C   5      44.639  52.768  74.9100  0.00  0.00     0.000 O
BRANCH 74 78
ATOM     75  C1  SGN C   5      42.436  55.195  77.4990  0.00  0.00     0.000 C
ATOM     76  C2  SGN C   5      43.968  55.270  77.6420  0.00  0.00     0.000 C
ATOM     77  C3  SGN C   5      44.658  54.616  76.4370  0.00  0.00     0.000 C
ATOM     78  C4  SGN C   5      44.066  53.249  76.1260  0.00  0.00     0.000 C
ATOM     79  C5  SGN C   5      42.555  53.368  75.9940  0.00  0.00     0.000 C
ATOM     80  O5  SGN C   5      41.997  53.868  77.2390  0.00  0.00     0.000 O
ATOM     81   O  SGN C   5      46.052  54.507  76.7070  0.00  0.00     0.000 O
ATOM     83  HD  SGN C   5      46.480  55.122  77.1410  0.00  0.00     0.000 HD
BRANCH 76 85
ATOM     83   N  SGN C   5      43.745  56.246  78.7160  0.00  0.00     0.000 N
ATOM     85  HD  SGN C   5      43.694  57.056  79.0170  0.00  0.00     0.000 HD
ATOM     85   S  SGN C   5      44.536  57.612  79.0370  0.00  0.00     0.000 S
ATOM     86   O  SGN C   5      43.952  58.274  80.1510  0.00  0.00     0.000 OA
ATOM     87   O  SGN C   5      45.914  57.286  79.1290  0.00  0.00     0.000 OA
ATOM     88   O  SGN C   5      44.172  58.324  77.7360  0.00  0.00     0.000 OA
ENDBRANCH 76 85
BRANCH 79 89
ATOM     89   C  SGN C   5      41.872  52.058  75.6590  0.00  0.00     0.000 C
ATOM     90   O  SGN C   5      40.440  52.195  75.8250  0.00  0.00     0.000 O
ATOM     91   S  SGN C   5      39.513  51.310  74.8590  0.00  0.00     0.000 S
ATOM     92   O  SGN C   5      39.958  51.575  73.5150  0.00  0.00     0.000 OA
ATOM     93   O  SGN C   5      39.700  49.933  75.2380  0.00  0.00     0.000 OA
ATOM     94   O  SGN C   5      38.189  51.799  75.1310  0.00  0.00     0.000 OA
ENDBRANCH 79 89
BRANCH 75 95
ATOM     95  O4  BDP C   6      42.122  55.998  76.4390  0.00  0.00     0.000 O
BRANCH 95 99
ATOM     96  C1  BDP C   6      38.675  58.500  75.8860  0.00  0.00     0.000 C
ATOM     97  C2  BDP C   6      39.096  58.151  77.2850  0.00  0.00     0.000 C
ATOM     98  C3  BDP C   6      40.523  57.591  77.3970  0.00  0.00     0.000 C
ATOM     99  C4  BDP C   6      40.767  56.492  76.3740  0.00  0.00     0.000 C
ATOM    100  C5  BDP C   6      40.318  57.017  74.9910  0.00  0.00     0.000 C
ATOM    101  O5  BDP C   6      38.922  57.301  75.1750  0.00  0.00     0.000 O
BRANCH 100 102
ATOM    102   C  BDP C   6      40.442  55.978  73.9060  0.00  0.00     0.000 C
ATOM    103   O  BDP C   6      39.847  54.892  73.9580  0.00  0.00     0.000 OA
ATOM    104   O  BDP C   6      41.161  56.261  72.9400  0.00  0.00     0.000 OA
ENDBRANCH 100 102
ENDBRANCH 95 99
ENDBRANCH 75 95
ENDBRANCH 74 78
ENDBRANCH 58 74
ENDBRANCH 57 61
ENDBRANCH 37 57
ENDBRANCH 36 40
ENDBRANCH 23 36
ENDBRANCH 22 26
ENDBRANCH 1 22
TORSDOF 20
ENDMDL
MODEL 86
REMARK VINA RESULT:      -0.8     86.649     90.142
ROOT
ATOM      1  C1  NGY C   1      60.935 101.034  57.5570  0.00  0.00     0.000 C
ATOM      2  C2  NGY C   1      59.948 100.905  56.4050  0.00  0.00     0.000 C
ATOM      3  C3  NGY C   1      60.692 100.860  55.0740  0.00  0.00     0.000 C
ATOM      4  C4  NGY C   1      61.587 102.081  54.9880  0.00  0.00     0.000 C
ATOM      5  C5  NGY C   1      62.578 102.045  56.1480  0.00  0.00     0.000 C
ATOM      6  O5  NGY C   1      61.828 102.115  57.3880  0.00  0.00     0.000 O
ATOM      7   O  NGY C   1      59.748 100.813  54.0140  0.00  0.00     0.000 O
ATOM      9  HD  NGY C   1      58.969 101.148  53.8390  0.00  0.00     0.000 HD
ATOM      9   O  NGY C   1      62.284 102.114  53.7510  0.00  0.00     0.000 O
ATOM     11  HD  NGY C   1      61.505 102.449  53.5750  0.00  0.00     0.000 HD
ENDROOT
BRANCH 2 13
ATOM     11   N  NGY C   1      59.089  99.837  56.8600  0.00  0.00     0.000 N
ATOM     13  HD  NGY C   1      58.366 100.057  56.4370  0.00  0.00     0.000 HD
ATOM     13   C  NGY C   1      57.820  99.746  56.4650  0.00  0.00     0.000 C
ATOM     14   O  NGY C   1      57.290 100.647  55.8120  0.00  0.00     0.000 OA
ATOM     15   C  NGY C   1      57.090  98.490  56.8310  0.00  0.00     0.000 C
ENDBRANCH 2 13
BRANCH 5 16
ATOM     16   C  NGY C   1      63.542 103.187  56.1950  0.00  0.00     0.000 C
ATOM     17   O  NGY C   1      67.001 103.000  54.9860  0.00  0.00     0.000 OA
ATOM     18   O  NGY C   1      64.844 102.705  55.8490  0.00  0.00     0.000 O
ATOM     19   S  NGY C   1      65.881 103.800  55.4100  0.00  0.00     0.000 S
ATOM     20   O  NGY C   1      66.181 104.592  56.5740  0.00  0.00     0.000 OA
ATOM     21   O  NGY C   1      65.204 104.545  54.3600  0.00  0.00     0.000 OA
ENDBRANCH 5 16
BRANCH 1 22
ATOM     22  O4  BDP C   2      61.572  99.855  57.7180  0.00  0.00     0.000 O
BRANCH 22 26
ATOM     23  C1  BDP C   2      63.349  97.017  60.1160  0.00  0.00     0.000 C
ATOM     24  C2  BDP C   2      61.959  97.439  60.5290  0.00  0.00     0.000 C
ATOM     25  C3  BDP C   2      61.297  98.178  59.3960  0.00  0.00     0.000 C
ATOM     26  C4  BDP C   2      62.187  99.321  58.9200  0.00  0.00     0.000 C
ATOM     27  C5  BDP C   2      63.607  98.814  58.7020  0.00  0.00     0.000 C
ATOM     28  O5  BDP C   2      64.170  98.197  59.8880  0.00  0.00     0.000 O
ATOM     29   O  BDP C   2      61.095  96.324  60.7540  0.00  0.00     0.000 O
ATOM     31  HD  BDP C   2      60.266  96.424  60.5250  0.00  0.00     0.000 HD
ATOM     31   O  BDP C   2      60.069  98.692  59.8980  0.00  0.00     0.000 O
ATOM     33  HD  BDP C   2      59.240  98.792  59.6700  0.00  0.00     0.000 HD
BRANCH 27 33
ATOM     33   C  BDP C   2      64.563  99.920  58.3220  0.00  0.00     0.000 C
ATOM     34   O  BDP C   2      65.382  99.797  57.3810  0.00  0.00     0.000 OA
ATOM     35   O  BDP C   2      64.552 100.947  58.9800  0.00  0.00     0.000 OA
ENDBRANCH 27 33
BRANCH 23 36
ATOM     36  O4  SGN C   3      64.002  96.229  61.0010  0.00  0.00     0.000 O
BRANCH 36 40
ATOM     37  C1  SGN C   3      66.482  92.902  61.4610  0.00  0.00     0.000 C
ATOM     38  C2  SGN C   3      67.145  94.244  61.1100  0.00  0.00     0.000 C
ATOM     39  C3  SGN C   3      66.199  95.398  61.4070  0.00  0.00     0.000 C
ATOM     40  C4  SGN C   3      64.907  95.178  60.6510  0.00  0.00     0.000 C
ATOM     41  C5  SGN C   3      64.339  93.830  61.0380  0.00  0.00     0.000 C
ATOM     42  O5  SGN C   3      65.280  92.796  60.7130  0.00  0.00     0.000 O
ATOM     43   O  SGN C   3      66.815  96.620  61.0190  0.00  0.00     0.000 O
ATOM     45  HD  SGN C   3      65.953  96.697  60.9740  0.00  0.00     0.000 HD
BRANCH 38 47
ATOM     45   N  SGN C   3      68.176  93.280  60.6850  0.00  0.00     0.000 N
ATOM     47  HD  SGN C   3      67.380  93.604  60.5800  0.00  0.00     0.000 HD
ATOM     47   S  SGN C   3      69.607  93.636  61.2780  0.00  0.00     0.000 S
ATOM     48   O  SGN C   3      70.100  94.856  60.7440  0.00  0.00     0.000 OA
ATOM     49   O  SGN C   3      69.492  93.559  62.6980  0.00  0.00     0.000 OA
ATOM     50   O  SGN C   3      70.428  92.552  60.7440  0.00  0.00     0.000 OA
ENDBRANCH 38 47
BRANCH 41 51
ATOM     51   C  SGN C   3      63.042  93.490  60.3550  0.00  0.00     0.000 C
ATOM     52   O  SGN C   3      62.265  93.772  56.7230  0.00  0.00     0.000 OA
ATOM     53   O  SGN C   3      61.494  92.170  58.3260  0.00  0.00     0.000 OA
ATOM     54   O  SGN C   3      60.897  94.486  58.5370  0.00  0.00     0.000 OA
ATOM     55   O  SGN C   3      63.191  93.695  58.9680  0.00  0.00     0.000 O
ATOM     56   S  SGN C   3      61.834  93.514  58.0540  0.00  0.00     0.000 S
ENDBRANCH 41 51
BRANCH 37 57
ATOM     57  O4  IDS C   4      66.180  92.746  62.7730  0.00  0.00     0.000 O
BRANCH 57 61
ATOM     58  C1  IDS C   4      66.393  91.047  66.1700  0.00  0.00     0.000 C
ATOM     59  C2  IDS C   4      67.661  91.466  65.4960  0.00  0.00     0.000 C
ATOM     60  C3  IDS C   4      67.642  91.208  63.9870  0.00  0.00     0.000 C
ATOM     61  C4  IDS C   4      66.308  91.403  63.2800  0.00  0.00     0.000 C
ATOM     62  C5  IDS C   4      65.142  91.056  64.2130  0.00  0.00     0.000 C
ATOM     63  O5  IDS C   4      65.300  91.646  65.4950  0.00  0.00     0.000 O
ATOM     64   O  IDS C   4      68.033  89.856  63.8350  0.00  0.00     0.000 O
ATOM     66  HD  IDS C   4      67.374  89.382  63.5340  0.00  0.00     0.000 HD
BRANCH 59 66
ATOM     66   O  IDS C   4      67.917  92.908  65.6700  0.00  0.00     0.000 O
ATOM     67   S  IDS C   4      69.158  93.304  66.5840  0.00  0.00     0.000 S
ATOM     68   O  IDS C   4      70.288  92.797  65.8430  0.00  0.00     0.000 OA
ATOM     69   O  IDS C   4      69.097  94.748  66.6920  0.00  0.00     0.000 OA
ATOM     70   O  IDS C   4      68.995  92.612  67.8540  0.00  0.00     0.000 OA
ENDBRANCH 59 66
BRANCH 62 71
ATOM     71   C  IDS C   4      63.802  91.548  63.6990  0.00  0.00     0.000 C
ATOM     72   O  IDS C   4      63.281  91.010  62.7410  0.00  0.00     0.000 OA
ATOM     73   O  IDS C   4      63.309  92.572  64.2120  0.00  0.00     0.000 OA
ENDBRANCH 62 71
BRANCH 58 74
ATOM     74  O4  SGN C   5      66.328  89.727  66.5040  0.00  0.00     0.000 O
BRANCH 74 78
ATOM     75  C1  SGN C   5      65.290  86.917  69.4150  0.00  0.00     0.000 C
ATOM     76  C2  SGN C   5      64.118  87.573  68.6600  0.00  0.00     0.000 C
ATOM     77  C3  SGN C   5      64.621  88.308  67.4110  0.00  0.00     0.000 C
ATOM     78  C4  SGN C   5      65.815  89.198  67.7270  0.00  0.00     0.000 C
ATOM     79  C5  SGN C   5      66.880  88.383  68.4450  0.00  0.00     0.000 C
ATOM     80  O5  SGN C   5      66.331  87.849  69.6790  0.00  0.00     0.000 O
ATOM     81   O  SGN C   5      63.554  89.078  66.8670  0.00  0.00     0.000 O
ATOM     83  HD  SGN C   5      62.737  88.791  66.8740  0.00  0.00     0.000 HD
BRANCH 76 85
ATOM     83   N  SGN C   5      63.306  86.626  69.4350  0.00  0.00     0.000 N
ATOM     85  HD  SGN C   5      62.799  85.928  69.5030  0.00  0.00     0.000 HD
ATOM     85   S  SGN C   5      61.889  85.955  69.0670  0.00  0.00     0.000 S
ATOM     86   O  SGN C   5      61.484  85.057  70.0920  0.00  0.00     0.000 OA
ATOM     87   O  SGN C   5      60.997  87.011  68.7430  0.00  0.00     0.000 OA
ATOM     88   O  SGN C   5      62.382  85.187  67.8430  0.00  0.00     0.000 OA
ENDBRANCH 76 85
BRANCH 79 89
ATOM     89   C  SGN C   5      68.125  89.178  68.7830  0.00  0.00     0.000 C
ATOM     90   O  SGN C   5      69.280  88.304  68.7820  0.00  0.00     0.000 O
ATOM     91   S  SGN C   5      70.679  88.960  68.3480  0.00  0.00     0.000 S
ATOM     92   O  SGN C   5      70.451  89.601  67.0800  0.00  0.00     0.000 OA
ATOM     93   O  SGN C   5      71.047  89.895  69.3800  0.00  0.00     0.000 OA
ATOM     94   O  SGN C   5      71.562  87.828  68.2660  0.00  0.00     0.000 OA
ENDBRANCH 79 89
BRANCH 75 95
ATOM     95  O4  BDP C   6      65.756  85.930  68.5930  0.00  0.00     0.000 O
BRANCH 95 99
ATOM     96  C1  BDP C   6      67.436  82.118  69.6380  0.00  0.00     0.000 C
ATOM     97  C2  BDP C   6      66.500  82.784  70.6060  0.00  0.00     0.000 C
ATOM     98  C3  BDP C   6      65.667  83.924  70.0010  0.00  0.00     0.000 C
ATOM     99  C4  BDP C   6      66.540  84.886  69.2080  0.00  0.00     0.000 C
ATOM    100  C5  BDP C   6      67.411  84.052  68.2390  0.00  0.00     0.000 C
ATOM    101  O5  BDP C   6      68.174  83.207  69.1150  0.00  0.00     0.000 O
BRANCH 100 102
ATOM    102   C  BDP C   6      68.378  84.899  67.4520  0.00  0.00     0.000 C
ATOM    103   O  BDP C   6      69.587  84.950  67.7240  0.00  0.00     0.000 OA
ATOM    104   O  BDP C   6      67.914  85.541  66.5020  0.00  0.00     0.000 OA
ENDBRANCH 100 102
ENDBRANCH 95 99
ENDBRANCH 75 95
ENDBRANCH 74 78
ENDBRANCH 58 74
ENDBRANCH 57 61
ENDBRANCH 37 57
ENDBRANCH 36 40
ENDBRANCH 23 36
ENDBRANCH 22 26
ENDBRANCH 1 22
TORSDOF 20
ENDMDL
MODEL 87
REMARK VINA RESULT:      -0.8     77.551     84.286
ROOT
ATOM      1  C1  NGY C   1      55.908  57.334 105.9680  0.00  0.00     0.000 C
ATOM      2  C2  NGY C   1      55.821  56.563 107.2780  0.00  0.00     0.000 C
ATOM      3  C3  NGY C   1      54.795  57.208 108.2040  0.00  0.00     0.000 C
ATOM      4  C4  NGY C   1      55.158  58.671 108.3710  0.00  0.00     0.000 C
ATOM      5  C5  NGY C   1      55.128  59.343 107.0010  0.00  0.00     0.000 C
ATOM      6  O5  NGY C   1      56.134  58.714 106.1650  0.00  0.00     0.000 O
ATOM      7   O  NGY C   1      54.785  56.516 109.4440  0.00  0.00     0.000 O
ATOM      9  HD  NGY C   1      55.361  56.128 109.9620  0.00  0.00     0.000 HD
ATOM      9   O  NGY C   1      54.255  59.322 109.2530  0.00  0.00     0.000 O
ATOM     11  HD  NGY C   1      54.831  58.934 109.7710  0.00  0.00     0.000 HD
ENDROOT
BRANCH 2 13
ATOM     11   N  NGY C   1      55.713  55.198 106.8200  0.00  0.00     0.000 N
ATOM     13  HD  NGY C   1      56.066  54.799 107.5030  0.00  0.00     0.000 HD
ATOM     13   C  NGY C   1      56.145  54.178 107.5600  0.00  0.00     0.000 C
ATOM     14   O  NGY C   1      56.782  54.368 108.5980  0.00  0.00     0.000 OA
ATOM     15   C  NGY C   1      55.794  52.803 107.0800  0.00  0.00     0.000 C
ENDBRANCH 2 13
BRANCH 5 16
ATOM     16   C  NGY C   1      55.457  60.801 107.0010  0.00  0.00     0.000 C
ATOM     17   O  NGY C   1      56.773  62.606 104.0900  0.00  0.00     0.000 OA
ATOM     18   O  NGY C   1      56.142  61.118 105.7860  0.00  0.00     0.000 O
ATOM     19   S  NGY C   1      56.172  62.641 105.3990  0.00  0.00     0.000 S
ATOM     20   O  NGY C   1      57.003  63.309 106.3660  0.00  0.00     0.000 OA
ATOM     21   O  NGY C   1      54.780  63.057 105.4440  0.00  0.00     0.000 OA
ENDBRANCH 5 16
BRANCH 1 22
ATOM     22  O4  BDP C   2      54.795  57.088 105.2450  0.00  0.00     0.000 O
BRANCH 22 26
ATOM     23  C1  BDP C   2      52.853  56.621 101.6430  0.00  0.00     0.000 C
ATOM     24  C2  BDP C   2      54.003  55.673 101.8890  0.00  0.00     0.000 C
ATOM     25  C3  BDP C   2      54.377  55.699 103.3480  0.00  0.00     0.000 C
ATOM     26  C4  BDP C   2      54.632  57.132 103.8020  0.00  0.00     0.000 C
ATOM     27  C5  BDP C   2      53.489  58.030 103.3480  0.00  0.00     0.000 C
ATOM     28  O5  BDP C   2      53.279  57.986 101.9130  0.00  0.00     0.000 O
ATOM     29   O  BDP C   2      53.645  54.311 101.6570  0.00  0.00     0.000 O
ATOM     31  HD  BDP C   2      54.005  53.722 102.1790  0.00  0.00     0.000 HD
ATOM     31   O  BDP C   2      55.561  54.924 103.4850  0.00  0.00     0.000 O
ATOM     33  HD  BDP C   2      55.921  54.335 104.0080  0.00  0.00     0.000 HD
BRANCH 27 33
ATOM     33   C  BDP C   2      53.729  59.483 103.6820  0.00  0.00     0.000 C
ATOM     34   O  BDP C   2      52.878  60.175 104.2920  0.00  0.00     0.000 OA
ATOM     35   O  BDP C   2      54.770  60.000 103.3130  0.00  0.00     0.000 OA
ENDBRANCH 27 33
BRANCH 23 36
ATOM     36  O4  SGN C   3      52.337  56.593 100.3920  0.00  0.00     0.000 O
BRANCH 36 40
ATOM     37  C1  SGN C   3      48.810  56.536  98.1580  0.00  0.00     0.000 C
ATOM     38  C2  SGN C   3      49.403  57.907  98.5220  0.00  0.00     0.000 C
ATOM     39  C3  SGN C   3      50.862  57.765  98.9310  0.00  0.00     0.000 C
ATOM     40  C4  SGN C   3      50.955  56.774 100.0720  0.00  0.00     0.000 C
ATOM     41  C5  SGN C   3      50.330  55.467  99.6360  0.00  0.00     0.000 C
ATOM     42  O5  SGN C   3      48.955  55.682  99.2820  0.00  0.00     0.000 O
ATOM     43   O  SGN C   3      51.366  59.037  99.3180  0.00  0.00     0.000 O
ATOM     45  HD  SGN C   3      51.800  58.410  99.7300  0.00  0.00     0.000 HD
BRANCH 38 47
ATOM     45   N  SGN C   3      48.000  58.233  98.2120  0.00  0.00     0.000 N
ATOM     47  HD  SGN C   3      48.567  57.812  98.7130  0.00  0.00     0.000 HD
ATOM     47   S  SGN C   3      47.879  59.466  97.2160  0.00  0.00     0.000 S
ATOM     48   O  SGN C   3      48.338  60.667  97.8200  0.00  0.00     0.000 OA
ATOM     49   O  SGN C   3      48.518  59.075  96.0020  0.00  0.00     0.000 OA
ATOM     50   O  SGN C   3      46.431  59.575  97.0510  0.00  0.00     0.000 OA
ENDBRANCH 38 47
BRANCH 41 51
ATOM     51   C  SGN C   3      50.362  54.389 100.6850  0.00  0.00     0.000 C
ATOM     52   O  SGN C   3      49.341  54.686 104.2550  0.00  0.00     0.000 OA
ATOM     53   O  SGN C   3      49.162  52.817 102.7690  0.00  0.00     0.000 OA
ATOM     54   O  SGN C   3      51.317  53.657 103.4140  0.00  0.00     0.000 OA
ATOM     55   O  SGN C   3      49.843  54.909 101.8880  0.00  0.00     0.000 O
ATOM     56   S  SGN C   3      49.925  53.924 103.2040  0.00  0.00     0.000 S
ENDBRANCH 41 51
BRANCH 37 57
ATOM     57  O4  IDS C   4      49.390  55.934  97.0910  0.00  0.00     0.000 O
BRANCH 57 61
ATOM     58  C1  IDS C   4      49.399  54.430  93.5970  0.00  0.00     0.000 C
ATOM     59  C2  IDS C   4      48.821  55.796  93.7890  0.00  0.00     0.000 C
ATOM     60  C3  IDS C   4      48.004  55.917  95.0780  0.00  0.00     0.000 C
ATOM     61  C4  IDS C   4      48.509  55.133  96.2810  0.00  0.00     0.000 C
ATOM     62  C5  IDS C   4      49.199  53.839  95.8350  0.00  0.00     0.000 C
ATOM     63  O5  IDS C   4      50.109  54.068  94.7690  0.00  0.00     0.000 O
ATOM     64   O  IDS C   4      46.713  55.441  94.7460  0.00  0.00     0.000 O
ATOM     66  HD  IDS C   4      46.544  54.703  95.1660  0.00  0.00     0.000 HD
BRANCH 59 66
ATOM     66   O  IDS C   4      49.876  56.825  93.8650  0.00  0.00     0.000 O
ATOM     67   S  IDS C   4      49.953  57.854  92.6530  0.00  0.00     0.000 S
ATOM     68   O  IDS C   4      48.705  58.571  92.7510  0.00  0.00     0.000 OA
ATOM     69   O  IDS C   4      51.137  58.649  92.9130  0.00  0.00     0.000 OA
ATOM     70   O  IDS C   4      50.028  57.072  91.4290  0.00  0.00     0.000 OA
ENDBRANCH 59 66
BRANCH 62 71
ATOM     71   C  IDS C   4      50.016  53.190  96.9370  0.00  0.00     0.000 C
ATOM     72   O  IDS C   4      51.230  53.216  96.8920  0.00  0.00     0.000 OA
ATOM     73   O  IDS C   4      49.414  52.548  97.8210  0.00  0.00     0.000 OA
ENDBRANCH 62 71
BRANCH 58 74
ATOM     74  O4  SGN C   5      48.556  53.525  93.0220  0.00  0.00     0.000 O
BRANCH 74 78
ATOM     75  C1  SGN C   5      48.124  50.460  90.2180  0.00  0.00     0.000 C
ATOM     76  C2  SGN C   5      48.891  50.097  91.5030  0.00  0.00     0.000 C
ATOM     77  C3  SGN C   5      48.689  51.172  92.5790  0.00  0.00     0.000 C
ATOM     78  C4  SGN C   5      48.911  52.571  92.0210  0.00  0.00     0.000 C
ATOM     79  C5  SGN C   5      48.059  52.762  90.7750  0.00  0.00     0.000 C
ATOM     80  O5  SGN C   5      48.432  51.776  89.7770  0.00  0.00     0.000 O
ATOM     81   O  SGN C   5      49.580  50.918  93.6600  0.00  0.00     0.000 O
ATOM     83  HD  SGN C   5      49.765  50.111  93.9160  0.00  0.00     0.000 HD
BRANCH 76 85
ATOM     83   N  SGN C   5      49.336  48.819  92.0760  0.00  0.00     0.000 N
ATOM     85  HD  SGN C   5      49.590  47.995  92.0050  0.00  0.00     0.000 HD
ATOM     85   S  SGN C   5      48.923  47.317  91.6680  0.00  0.00     0.000 S
ATOM     86   O  SGN C   5      49.632  46.374  92.4600  0.00  0.00     0.000 OA
ATOM     87   O  SGN C   5      47.505  47.250  91.6980  0.00  0.00     0.000 OA
ATOM     88   O  SGN C   5      49.492  47.367  90.2520  0.00  0.00     0.000 OA
ENDBRANCH 76 85
BRANCH 79 89
ATOM     89   C  SGN C   5      48.193  54.139  90.1570  0.00  0.00     0.000 C
ATOM     90   O  SGN C   5      46.928  54.541  89.5760  0.00  0.00     0.000 O
ATOM     91   S  SGN C   5      46.600  56.112  89.5800  0.00  0.00     0.000 S
ATOM     92   O  SGN C   5      46.769  56.559  90.9380  0.00  0.00     0.000 OA
ATOM     93   O  SGN C   5      47.526  56.740  88.6740  0.00  0.00     0.000 OA
ATOM     94   O  SGN C   5      45.237  56.165  89.1260  0.00  0.00     0.000 OA
ENDBRANCH 79 89
BRANCH 75 95
ATOM     95  O4  BDP C   6      46.799  50.384  90.5420  0.00  0.00     0.000 O
BRANCH 95 99
ATOM     96  C1  BDP C   6      43.618  49.358  87.8450  0.00  0.00     0.000 C
ATOM     97  C2  BDP C   6      45.038  49.182  87.3860  0.00  0.00     0.000 C
ATOM     98  C3  BDP C   6      46.077  49.203  88.5180  0.00  0.00     0.000 C
ATOM     99  C4  BDP C   6      45.858  50.388  89.4460  0.00  0.00     0.000 C
ATOM    100  C5  BDP C   6      44.366  50.408  89.8530  0.00  0.00     0.000 C
ATOM    101  O5  BDP C   6      43.678  50.553  88.6010  0.00  0.00     0.000 O
BRANCH 100 102
ATOM    102   C  BDP C   6      44.015  51.592  90.7170  0.00  0.00     0.000 C
ATOM    103   O  BDP C   6      43.476  51.467  91.8260  0.00  0.00     0.000 OA
ATOM    104   O  BDP C   6      44.301  52.711  90.2740  0.00  0.00     0.000 OA
ENDBRANCH 100 102
ENDBRANCH 95 99
ENDBRANCH 75 95
ENDBRANCH 74 78
ENDBRANCH 58 74
ENDBRANCH 57 61
ENDBRANCH 37 57
ENDBRANCH 36 40
ENDBRANCH 23 36
ENDBRANCH 22 26
ENDBRANCH 1 22
TORSDOF 20
ENDMDL
MODEL 88
REMARK VINA RESULT:      -0.8     81.401     92.417
ROOT
ATOM      1  C1  NGY C   1     110.932  22.584  68.0380  0.00  0.00     0.000 C
ATOM      2  C2  NGY C   1     110.942  23.961  68.6880  0.00  0.00     0.000 C
ATOM      3  C3  NGY C   1     111.523  24.994  67.7290  0.00  0.00     0.000 C
ATOM      4  C4  NGY C   1     112.890  24.512  67.2810  0.00  0.00     0.000 C
ATOM      5  C5  NGY C   1     112.728  23.168  66.5750  0.00  0.00     0.000 C
ATOM      6  O5  NGY C   1     112.196  22.214  67.5310  0.00  0.00     0.000 O
ATOM      7   O  NGY C   1     111.589  26.253  68.3830  0.00  0.00     0.000 O
ATOM      9  HD  NGY C   1     111.755  26.550  69.1790  0.00  0.00     0.000 HD
ATOM      9   O  NGY C   1     113.499  25.452  66.4080  0.00  0.00     0.000 O
ATOM     11  HD  NGY C   1     113.666  25.748  67.2040  0.00  0.00     0.000 HD
ENDROOT
BRANCH 2 13
ATOM     11   N  NGY C   1     109.603  24.057  69.2210  0.00  0.00     0.000 N
ATOM     13  HD  NGY C   1     109.760  24.593  69.8830  0.00  0.00     0.000 HD
ATOM     13   C  NGY C   1     109.330  24.800  70.2930  0.00  0.00     0.000 C
ATOM     14   O  NGY C   1     110.230  25.317  70.9550  0.00  0.00     0.000 OA
ATOM     15   C  NGY C   1     107.882  24.991  70.6270  0.00  0.00     0.000 C
ENDBRANCH 2 13
BRANCH 5 16
ATOM     16   C  NGY C   1     113.996  22.563  66.0630  0.00  0.00     0.000 C
ATOM     17   O  NGY C   1     115.092  22.752  62.5680  0.00  0.00     0.000 OA
ATOM     18   O  NGY C   1     113.998  22.639  64.6350  0.00  0.00     0.000 O
ATOM     19   S  NGY C   1     115.400  22.474  63.9470  0.00  0.00     0.000 S
ATOM     20   O  NGY C   1     115.817  21.111  64.1510  0.00  0.00     0.000 OA
ATOM     21   O  NGY C   1     116.251  23.447  64.6130  0.00  0.00     0.000 OA
ENDBRANCH 5 16
BRANCH 1 22
ATOM     22  O4  BDP C   2     109.966  22.556  67.0960  0.00  0.00     0.000 O
BRANCH 22 26
ATOM     23  C1  BDP C   2     107.055  20.555  64.9780  0.00  0.00     0.000 C
ATOM     24  C2  BDP C   2     106.946  20.460  66.4810  0.00  0.00     0.000 C
ATOM     25  C3  BDP C   2     107.820  21.508  67.1190  0.00  0.00     0.000 C
ATOM     26  C4  BDP C   2     109.244  21.405  66.5830  0.00  0.00     0.000 C
ATOM     27  C5  BDP C   2     109.220  21.333  65.0620  0.00  0.00     0.000 C
ATOM     28  O5  BDP C   2     108.413  20.233  64.5650  0.00  0.00     0.000 O
ATOM     29   O  BDP C   2     105.637  20.781  66.9530  0.00  0.00     0.000 O
ATOM     31  HD  BDP C   2     105.590  21.202  67.7080  0.00  0.00     0.000 HD
ATOM     31   O  BDP C   2     107.806  21.261  68.5190  0.00  0.00     0.000 O
ATOM     33  HD  BDP C   2     107.759  21.682  69.2750  0.00  0.00     0.000 HD
BRANCH 27 33
ATOM     33   C  BDP C   2     110.595  21.131  64.4710  0.00  0.00     0.000 C
ATOM     34   O  BDP C   2     111.001  21.795  63.4880  0.00  0.00     0.000 OA
ATOM     35   O  BDP C   2     111.312  20.270  64.9520  0.00  0.00     0.000 OA
ENDBRANCH 27 33
BRANCH 23 36
ATOM     36  O4  SGN C   3     106.216  19.751  64.2840  0.00  0.00     0.000 O
BRANCH 36 40
ATOM     37  C1  SGN C   3     103.683  19.467  60.9770  0.00  0.00     0.000 C
ATOM     38  C2  SGN C   3     105.188  19.259  60.7440  0.00  0.00     0.000 C
ATOM     39  C3  SGN C   3     105.894  18.960  62.0580  0.00  0.00     0.000 C
ATOM     40  C4  SGN C   3     105.611  20.084  63.0310  0.00  0.00     0.000 C
ATOM     41  C5  SGN C   3     104.113  20.233  63.1820  0.00  0.00     0.000 C
ATOM     42  O5  SGN C   3     103.524  20.528  61.9070  0.00  0.00     0.000 O
ATOM     43   O  SGN C   3     107.291  18.832  61.8210  0.00  0.00     0.000 O
ATOM     45  HD  SGN C   3     107.153  19.100  62.6330  0.00  0.00     0.000 HD
BRANCH 38 47
ATOM     45   N  SGN C   3     104.820  19.660  59.3740  0.00  0.00     0.000 N
ATOM     47  HD  SGN C   3     104.942  19.884  60.2010  0.00  0.00     0.000 HD
ATOM     47   S  SGN C   3     105.216  18.555  58.3020  0.00  0.00     0.000 S
ATOM     48   O  SGN C   3     106.625  18.412  58.2020  0.00  0.00     0.000 OA
ATOM     49   O  SGN C   3     104.474  17.382  58.6310  0.00  0.00     0.000 OA
ATOM     50   O  SGN C   3     104.740  19.163  57.0600  0.00  0.00     0.000 OA
ENDBRANCH 38 47
BRANCH 41 51
ATOM     51   C  SGN C   3     103.695  21.321  64.1340  0.00  0.00     0.000 C
ATOM     52   O  SGN C   3     104.944  24.830  64.2340  0.00  0.00     0.000 OA
ATOM     53   O  SGN C   3     102.764  23.973  64.7300  0.00  0.00     0.000 OA
ATOM     54   O  SGN C   3     104.648  23.364  66.0880  0.00  0.00     0.000 OA
ATOM     55   O  SGN C   3     104.375  22.509  63.7930  0.00  0.00     0.000 O
ATOM     56   S  SGN C   3     104.163  23.787  64.8080  0.00  0.00     0.000 S
ENDBRANCH 41 51
BRANCH 37 57
ATOM     57  O4  IDS C   4     103.029  18.381  61.4580  0.00  0.00     0.000 O
BRANCH 57 61
ATOM     58  C1  IDS C   4     100.361  15.684  61.1780  0.00  0.00     0.000 C
ATOM     59  C2  IDS C   4     101.159  16.034  59.9620  0.00  0.00     0.000 C
ATOM     60  C3  IDS C   4     101.411  17.538  59.8320  0.00  0.00     0.000 C
ATOM     61  C4  IDS C   4     101.629  18.307  61.1280  0.00  0.00     0.000 C
ATOM     62  C5  IDS C   4     100.828  17.679  62.2740  0.00  0.00     0.000 C
ATOM     63  O5  IDS C   4     100.980  16.267  62.3120  0.00  0.00     0.000 O
ATOM     64   O  IDS C   4     100.257  18.055  59.1960  0.00  0.00     0.000 O
ATOM     66  HD  IDS C   4      99.816  18.568  59.7380  0.00  0.00     0.000 HD
BRANCH 59 66
ATOM     66   O  IDS C   4     102.486  15.388  59.9800  0.00  0.00     0.000 O
ATOM     67   S  IDS C   4     102.706  14.189  58.9570  0.00  0.00     0.000 S
ATOM     68   O  IDS C   4     102.606  14.833  57.6690  0.00  0.00     0.000 OA
ATOM     69   O  IDS C   4     104.018  13.662  59.2770  0.00  0.00     0.000 OA
ATOM     70   O  IDS C   4     101.624  13.240  59.1680  0.00  0.00     0.000 OA
ENDBRANCH 59 66
BRANCH 62 71
ATOM     71   C  IDS C   4     101.259  18.173  63.6410  0.00  0.00     0.000 C
ATOM     72   O  IDS C   4     100.842  19.234  64.0660  0.00  0.00     0.000 OA
ATOM     73   O  IDS C   4     102.122  17.523  64.2630  0.00  0.00     0.000 OA
ENDBRANCH 62 71
BRANCH 58 74
ATOM     74  O4  SGN C   5      99.010  15.790  61.0290  0.00  0.00     0.000 O
BRANCH 74 78
ATOM     75  C1  SGN C   5      95.274  14.140  61.9010  0.00  0.00     0.000 C
ATOM     76  C2  SGN C   5      95.936  14.948  63.0320  0.00  0.00     0.000 C
ATOM     77  C3  SGN C   5      97.111  15.774  62.4930  0.00  0.00     0.000 C
ATOM     78  C4  SGN C   5      98.034  14.933  61.6210  0.00  0.00     0.000 C
ATOM     79  C5  SGN C   5      97.217  14.230  60.5480  0.00  0.00     0.000 C
ATOM     80  O5  SGN C   5      96.227  13.373  61.1760  0.00  0.00     0.000 O
ATOM     81   O  SGN C   5      97.829  16.329  63.5910  0.00  0.00     0.000 O
ATOM     83  HD  SGN C   5      97.424  16.608  64.3040  0.00  0.00     0.000 HD
BRANCH 76 85
ATOM     83   N  SGN C   5      94.773  14.628  63.8700  0.00  0.00     0.000 N
ATOM     85  HD  SGN C   5      93.997  14.812  64.2070  0.00  0.00     0.000 HD
ATOM     85   S  SGN C   5      93.929  15.582  64.8550  0.00  0.00     0.000 S
ATOM     86   O  SGN C   5      92.849  14.863  65.4370  0.00  0.00     0.000 OA
ATOM     87   O  SGN C   5      94.853  16.190  65.7430  0.00  0.00     0.000 OA
ATOM     88   O  SGN C   5      93.421  16.531  63.7720  0.00  0.00     0.000 OA
ENDBRANCH 76 85
BRANCH 79 89
ATOM     89   C  SGN C   5      98.053  13.383  59.6100  0.00  0.00     0.000 C
ATOM     90   O  SGN C   5      97.380  13.256  58.3340  0.00  0.00     0.000 O
ATOM     91   S  SGN C   5      98.316  13.116  57.0370  0.00  0.00     0.000 S
ATOM     92   O  SGN C   5      99.242  14.217  57.0840  0.00  0.00     0.000 OA
ATOM     93   O  SGN C   5      98.974  11.838  57.1250  0.00  0.00     0.000 OA
ATOM     94   O  SGN C   5      97.383  13.200  55.9460  0.00  0.00     0.000 OA
ENDBRANCH 79 89
BRANCH 75 95
ATOM     95  O4  BDP C   6      94.700  15.062  61.0710  0.00  0.00     0.000 O
BRANCH 95 99
ATOM     96  C1  BDP C   6      90.895  14.646  59.1250  0.00  0.00     0.000 C
ATOM     97  C2  BDP C   6      91.284  13.640  60.1710  0.00  0.00     0.000 C
ATOM     98  C3  BDP C   6      92.455  14.075  61.0640  0.00  0.00     0.000 C
ATOM     99  C4  BDP C   6      93.617  14.602  60.2350  0.00  0.00     0.000 C
ATOM    100  C5  BDP C   6      93.059  15.645  59.2390  0.00  0.00     0.000 C
ATOM    101  O5  BDP C   6      92.117  14.893  58.4560  0.00  0.00     0.000 O
BRANCH 100 102
ATOM    102   C  BDP C   6      94.115  16.181  58.3060  0.00  0.00     0.000 C
ATOM    103   O  BDP C   6      94.256  17.394  58.0920  0.00  0.00     0.000 OA
ATOM    104   O  BDP C   6      94.856  15.352  57.7650  0.00  0.00     0.000 OA
ENDBRANCH 100 102
ENDBRANCH 95 99
ENDBRANCH 75 95
ENDBRANCH 74 78
ENDBRANCH 58 74
ENDBRANCH 57 61
ENDBRANCH 37 57
ENDBRANCH 36 40
ENDBRANCH 23 36
ENDBRANCH 22 26
ENDBRANCH 1 22
TORSDOF 20
ENDMDL
MODEL 89
REMARK VINA RESULT:      -0.8     83.783     93.101
ROOT
ATOM      1  C1  NGY C   1      80.628   3.266  98.1610  0.00  0.00     0.000 C
ATOM      2  C2  NGY C   1      79.339   3.681  98.8580  0.00  0.00     0.000 C
ATOM      3  C3  NGY C   1      79.634   4.707  99.9470  0.00  0.00     0.000 C
ATOM      4  C4  NGY C   1      80.681   4.125 100.8780  0.00  0.00     0.000 C
ATOM      5  C5  NGY C   1      81.944   3.831 100.0730  0.00  0.00     0.000 C
ATOM      6  O5  NGY C   1      81.621   2.836  99.0680  0.00  0.00     0.000 O
ATOM      7   O  NGY C   1      78.429   5.023 100.6300  0.00  0.00     0.000 O
ATOM      9  HD  NGY C   1      77.713   4.607 100.8830  0.00  0.00     0.000 HD
ATOM      9   O  NGY C   1      80.975   5.023 101.9380  0.00  0.00     0.000 O
ATOM     11  HD  NGY C   1      80.259   4.608 102.1910  0.00  0.00     0.000 HD
ENDROOT
BRANCH 2 13
ATOM     11   N  NGY C   1      78.464   3.958  97.7440  0.00  0.00     0.000 N
ATOM     13  HD  NGY C   1      77.705   3.782  98.1220  0.00  0.00     0.000 HD
ATOM     13   C  NGY C   1      77.143   3.821  97.8430  0.00  0.00     0.000 C
ATOM     14   O  NGY C   1      76.628   3.317  98.8420  0.00  0.00     0.000 OA
ATOM     15   C  NGY C   1      76.325   4.335  96.6970  0.00  0.00     0.000 C
ENDBRANCH 2 13
BRANCH 5 16
ATOM     16   C  NGY C   1      83.079   3.258 100.8590  0.00  0.00     0.000 C
ATOM     17   O  NGY C   1      85.922   5.225 102.0880  0.00  0.00     0.000 OA
ATOM     18   O  NGY C   1      84.102   4.251 100.9810  0.00  0.00     0.000 O
ATOM     19   S  NGY C   1      85.152   4.008 102.1240  0.00  0.00     0.000 S
ATOM     20   O  NGY C   1      85.930   2.856 101.7480  0.00  0.00     0.000 OA
ATOM     21   O  NGY C   1      84.352   3.802 103.3200  0.00  0.00     0.000 OA
ENDBRANCH 5 16
BRANCH 1 22
ATOM     22  O4  BDP C   2      81.045   4.283  97.3780  0.00  0.00     0.000 O
BRANCH 22 26
ATOM     23  C1  BDP C   2      82.873   5.684  93.9640  0.00  0.00     0.000 C
ATOM     24  C2  BDP C   2      81.778   4.668  93.7440  0.00  0.00     0.000 C
ATOM     25  C3  BDP C   2      80.965   4.520  95.0030  0.00  0.00     0.000 C
ATOM     26  C4  BDP C   2      81.875   4.219  96.1880  0.00  0.00     0.000 C
ATOM     27  C5  BDP C   2      83.040   5.201  96.2080  0.00  0.00     0.000 C
ATOM     28  O5  BDP C   2      83.800   5.193  94.9730  0.00  0.00     0.000 O
ATOM     29   O  BDP C   2      80.823   5.098  92.7740  0.00  0.00     0.000 O
ATOM     31  HD  BDP C   2      79.999   4.872  92.9150  0.00  0.00     0.000 HD
ATOM     31   O  BDP C   2      80.066   3.439  94.7900  0.00  0.00     0.000 O
ATOM     33  HD  BDP C   2      79.242   3.213  94.9310  0.00  0.00     0.000 HD
BRANCH 27 33
ATOM     33   C  BDP C   2      84.034   4.896  97.3030  0.00  0.00     0.000 C
ATOM     34   O  BDP C   2      84.503   5.792  98.0440  0.00  0.00     0.000 OA
ATOM     35   O  BDP C   2      84.410   3.744  97.4410  0.00  0.00     0.000 OA
ENDBRANCH 27 33
BRANCH 23 36
ATOM     36  O4  SGN C   3      83.596   6.004  92.8650  0.00  0.00     0.000 O
BRANCH 36 40
ATOM     37  C1  SGN C   3      85.409   9.099  90.7280  0.00  0.00     0.000 C
ATOM     38  C2  SGN C   3      86.184   8.499  91.9130  0.00  0.00     0.000 C
ATOM     39  C3  SGN C   3      85.611   7.141  92.2910  0.00  0.00     0.000 C
ATOM     40  C4  SGN C   3      84.135   7.300  92.5880  0.00  0.00     0.000 C
ATOM     41  C5  SGN C   3      83.459   7.915  91.3830  0.00  0.00     0.000 C
ATOM     42  O5  SGN C   3      84.043   9.196  91.1000  0.00  0.00     0.000 O
ATOM     43   O  SGN C   3      86.307   6.638  93.4240  0.00  0.00     0.000 O
ATOM     45  HD  SGN C   3      85.503   6.317  93.4060  0.00  0.00     0.000 HD
BRANCH 38 47
ATOM     45   N  SGN C   3      86.835   9.809  91.7330  0.00  0.00     0.000 N
ATOM     47  HD  SGN C   3      86.120   9.360  91.9250  0.00  0.00     0.000 HD
ATOM     47   S  SGN C   3      88.420   9.688  91.6930  0.00  0.00     0.000 S
ATOM     48   O  SGN C   3      88.940   9.265  92.9450  0.00  0.00     0.000 OA
ATOM     49   O  SGN C   3      88.739   8.880  90.5610  0.00  0.00     0.000 OA
ATOM     50   O  SGN C   3      88.819  11.080  91.4910  0.00  0.00     0.000 OA
ENDBRANCH 38 47
BRANCH 41 51
ATOM     51   C  SGN C   3      81.978   8.122  91.5480  0.00  0.00     0.000 C
ATOM     52   O  SGN C   3      80.227   9.680  94.4440  0.00  0.00     0.000 OA
ATOM     53   O  SGN C   3      79.674   9.742  92.1160  0.00  0.00     0.000 OA
ATOM     54   O  SGN C   3      79.624   7.667  93.3230  0.00  0.00     0.000 OA
ATOM     55   O  SGN C   3      81.744   8.792  92.7670  0.00  0.00     0.000 O
ATOM     56   S  SGN C   3      80.169   8.987  93.2020  0.00  0.00     0.000 S
ENDBRANCH 41 51
BRANCH 37 57
ATOM     57  O4  IDS C   4      85.486   8.382  89.5810  0.00  0.00     0.000 O
BRANCH 57 61
ATOM     58  C1  IDS C   4      86.416   7.911  85.9220  0.00  0.00     0.000 C
ATOM     59  C2  IDS C   4      87.434   8.488  86.8530  0.00  0.00     0.000 C
ATOM     60  C3  IDS C   4      86.829   9.475  87.8550  0.00  0.00     0.000 C
ATOM     61  C4  IDS C   4      85.431   9.154  88.3660  0.00  0.00     0.000 C
ATOM     62  C5  IDS C   4      84.612   8.429  87.2920  0.00  0.00     0.000 C
ATOM     63  O5  IDS C   4      85.350   7.376  86.6880  0.00  0.00     0.000 O
ATOM     64   O  IDS C   4      86.781  10.714  87.1730  0.00  0.00     0.000 O
ATOM     66  HD  IDS C   4      85.960  10.951  87.0320  0.00  0.00     0.000 HD
BRANCH 59 66
ATOM     66   O  IDS C   4      88.097   7.437  87.6500  0.00  0.00     0.000 O
ATOM     67   S  IDS C   4      89.622   7.139  87.3030  0.00  0.00     0.000 S
ATOM     68   O  IDS C   4      90.286   8.370  87.6570  0.00  0.00     0.000 OA
ATOM     69   O  IDS C   4      89.974   5.997  88.1240  0.00  0.00     0.000 OA
ATOM     70   O  IDS C   4      89.695   6.880  85.8740  0.00  0.00     0.000 OA
ENDBRANCH 59 66
BRANCH 62 71
ATOM     71   C  IDS C   4      83.352   7.785  87.8380  0.00  0.00     0.000 C
ATOM     72   O  IDS C   4      83.290   6.578  87.9650  0.00  0.00     0.000 OA
ATOM     73   O  IDS C   4      82.359   8.509  88.0510  0.00  0.00     0.000 OA
ENDBRANCH 62 71
BRANCH 58 74
ATOM     74  O4  SGN C   5      86.133   8.679  84.8320  0.00  0.00     0.000 O
BRANCH 74 78
ATOM     75  C1  SGN C   5      85.381   8.756  80.7250  0.00  0.00     0.000 C
ATOM     76  C2  SGN C   5      84.234   8.237  81.6120  0.00  0.00     0.000 C
ATOM     77  C3  SGN C   5      84.493   8.574  83.0860  0.00  0.00     0.000 C
ATOM     78  C4  SGN C   5      85.907   8.199  83.5070  0.00  0.00     0.000 C
ATOM     79  C5  SGN C   5      86.905   8.815  82.5380  0.00  0.00     0.000 C
ATOM     80  O5  SGN C   5      86.649   8.319  81.1970  0.00  0.00     0.000 O
ATOM     81   O  SGN C   5      83.535   7.894  83.8910  0.00  0.00     0.000 O
ATOM     83  HD  SGN C   5      82.715   7.790  83.6310  0.00  0.00     0.000 HD
BRANCH 76 85
ATOM     83   N  SGN C   5      83.110   8.941  80.9810  0.00  0.00     0.000 N
ATOM     85  HD  SGN C   5      82.277   9.009  80.7560  0.00  0.00     0.000 HD
ATOM     85   S  SGN C   5      81.911   8.354  80.0810  0.00  0.00     0.000 S
ATOM     86   O  SGN C   5      81.012   9.393  79.7130  0.00  0.00     0.000 OA
ATOM     87   O  SGN C   5      82.503   7.610  79.0280  0.00  0.00     0.000 OA
ATOM     88   O  SGN C   5      81.301   7.476  81.1700  0.00  0.00     0.000 OA
ENDBRANCH 76 85
BRANCH 79 89
ATOM     89   C  SGN C   5      88.349   8.518  82.8870  0.00  0.00     0.000 C
ATOM     90   O  SGN C   5      88.922   7.635  81.8920  0.00  0.00     0.000 O
ATOM     91   S  SGN C   5      90.492   7.799  81.6010  0.00  0.00     0.000 S
ATOM     92   O  SGN C   5      90.709   9.193  81.3160  0.00  0.00     0.000 OA
ATOM     93   O  SGN C   5      91.189   7.363  82.7840  0.00  0.00     0.000 OA
ATOM     94   O  SGN C   5      90.709   6.942  80.4670  0.00  0.00     0.000 OA
ENDBRANCH 79 89
BRANCH 75 95
ATOM     95  O4  BDP C   6      85.312  10.119  80.7870  0.00  0.00     0.000 O
BRANCH 95 99
ATOM     96  C1  BDP C   6      86.732  13.129  78.0730  0.00  0.00     0.000 C
ATOM     97  C2  BDP C   6      86.184  11.849  77.5080  0.00  0.00     0.000 C
ATOM     98  C3  BDP C   6      85.364  11.016  78.5050  0.00  0.00     0.000 C
ATOM     99  C4  BDP C   6      86.100  10.856  79.8270  0.00  0.00     0.000 C
ATOM    100  C5  BDP C   6      86.565  12.257  80.2880  0.00  0.00     0.000 C
ATOM    101  O5  BDP C   6      87.428  12.692  79.2250  0.00  0.00     0.000 O
BRANCH 100 102
ATOM    102   C  BDP C   6      87.378  12.212  81.5570  0.00  0.00     0.000 C
ATOM    103   O  BDP C   6      88.563  11.847  81.5710  0.00  0.00     0.000 OA
ATOM    104   O  BDP C   6      86.812  12.570  82.5970  0.00  0.00     0.000 OA
ENDBRANCH 100 102
ENDBRANCH 95 99
ENDBRANCH 75 95
ENDBRANCH 74 78
ENDBRANCH 58 74
ENDBRANCH 57 61
ENDBRANCH 37 57
ENDBRANCH 36 40
ENDBRANCH 23 36
ENDBRANCH 22 26
ENDBRANCH 1 22
TORSDOF 20
ENDMDL
MODEL 90
REMARK VINA RESULT:      -0.8    109.796    117.769
ROOT
ATOM      1  C1  NGY C   1     102.834  55.098  92.2910  0.00  0.00     0.000 C
ATOM      2  C2  NGY C   1     101.957  55.626  91.1640  0.00  0.00     0.000 C
ATOM      3  C3  NGY C   1     100.591  54.949  91.1970  0.00  0.00     0.000 C
ATOM      4  C4  NGY C   1     100.802  53.447  91.1640  0.00  0.00     0.000 C
ATOM      5  C5  NGY C   1     101.622  53.041  92.3850  0.00  0.00     0.000 C
ATOM      6  O5  NGY C   1     102.918  53.688  92.2990  0.00  0.00     0.000 O
ATOM      7   O  NGY C   1      99.818  55.403  90.0950  0.00  0.00     0.000 O
ATOM      9  HD  NGY C   1      99.954  55.622  89.2680  0.00  0.00     0.000 HD
ATOM      9   O  NGY C   1      99.560  52.759  91.1580  0.00  0.00     0.000 O
ATOM     11  HD  NGY C   1      99.697  52.978  90.3310  0.00  0.00     0.000 HD
ENDROOT
BRANCH 2 13
ATOM     11   N  NGY C   1     102.119  57.055  91.2920  0.00  0.00     0.000 N
ATOM     13  HD  NGY C   1     101.985  57.280  90.4670  0.00  0.00     0.000 HD
ATOM     13   C  NGY C   1     102.003  57.867  90.2430  0.00  0.00     0.000 C
ATOM     14   O  NGY C   1     101.894  57.420  89.1000  0.00  0.00     0.000 OA
ATOM     15   C  NGY C   1     101.983  59.338  90.5300  0.00  0.00     0.000 C
ENDBRANCH 2 13
BRANCH 5 16
ATOM     16   C  NGY C   1     101.908  51.578  92.5010  0.00  0.00     0.000 C
ATOM     17   O  NGY C   1     100.026  49.285  94.6590  0.00  0.00     0.000 OA
ATOM     18   O  NGY C   1     101.136  51.042  93.5790  0.00  0.00     0.000 O
ATOM     19   S  NGY C   1     100.954  49.482  93.5740  0.00  0.00     0.000 S
ATOM     20   O  NGY C   1     102.244  48.902  93.8440  0.00  0.00     0.000 OA
ATOM     21   O  NGY C   1     100.447  49.176  92.2460  0.00  0.00     0.000 OA
ENDBRANCH 5 16
BRANCH 1 22
ATOM     22  O4  BDP C   2     102.385  55.598  93.4620  0.00  0.00     0.000 O
BRANCH 22 26
ATOM     23  C1  BDP C   2     103.053  56.993  97.2790  0.00  0.00     0.000 C
ATOM     24  C2  BDP C   2     103.864  57.659  96.1920  0.00  0.00     0.000 C
ATOM     25  C3  BDP C   2     103.273  57.329  94.8470  0.00  0.00     0.000 C
ATOM     26  C4  BDP C   2     103.129  55.819  94.6890  0.00  0.00     0.000 C
ATOM     27  C5  BDP C   2     102.453  55.233  95.9220  0.00  0.00     0.000 C
ATOM     28  O5  BDP C   2     103.159  55.547  97.1500  0.00  0.00     0.000 O
ATOM     29   O  BDP C   2     103.788  59.084  96.2530  0.00  0.00     0.000 O
ATOM     31  HD  BDP C   2     103.786  59.504  95.4960  0.00  0.00     0.000 HD
ATOM     31   O  BDP C   2     104.168  57.839  93.8660  0.00  0.00     0.000 O
ATOM     33  HD  BDP C   2     104.166  58.260  93.1090  0.00  0.00     0.000 HD
BRANCH 27 33
ATOM     33   C  BDP C   2     102.368  53.726  95.8720  0.00  0.00     0.000 C
ATOM     34   O  BDP C   2     103.353  53.014  95.5630  0.00  0.00     0.000 OA
ATOM     35   O  BDP C   2     101.294  53.198  96.1090  0.00  0.00     0.000 OA
ENDBRANCH 27 33
BRANCH 23 36
ATOM     36  O4  SGN C   3     103.403  57.318  98.5450  0.00  0.00     0.000 O
BRANCH 36 40
ATOM     37  C1  SGN C   3     102.001  58.254 102.3640  0.00  0.00     0.000 C
ATOM     38  C2  SGN C   3     102.093  56.768 101.9820  0.00  0.00     0.000 C
ATOM     39  C3  SGN C   3     103.005  56.584 100.7780  0.00  0.00     0.000 C
ATOM     40  C4  SGN C   3     102.493  57.442  99.6410  0.00  0.00     0.000 C
ATOM     41  C5  SGN C   3     102.413  58.878 100.1120  0.00  0.00     0.000 C
ATOM     42  O5  SGN C   3     101.525  58.971 101.2360  0.00  0.00     0.000 O
ATOM     43   O  SGN C   3     103.024  55.210 100.4100  0.00  0.00     0.000 O
ATOM     45  HD  SGN C   3     103.183  55.703  99.7160  0.00  0.00     0.000 HD
BRANCH 38 47
ATOM     45   N  SGN C   3     101.144  56.755 103.1090  0.00  0.00     0.000 N
ATOM     47  HD  SGN C   3     101.330  57.013 102.3040  0.00  0.00     0.000 HD
ATOM     47   S  SGN C   3     101.519  55.653 104.1920  0.00  0.00     0.000 S
ATOM     48   O  SGN C   3     101.376  54.341 103.6670  0.00  0.00     0.000 OA
ATOM     49   O  SGN C   3     102.804  56.002 104.7030  0.00  0.00     0.000 OA
ATOM     50   O  SGN C   3     100.470  55.849 105.1910  0.00  0.00     0.000 OA
ENDBRANCH 38 47
BRANCH 41 51
ATOM     51   C  SGN C   3     101.920  59.841  99.0670  0.00  0.00     0.000 C
ATOM     52   O  SGN C   3      98.928  59.458  96.8800  0.00  0.00     0.000 OA
ATOM     53   O  SGN C   3      99.879  61.440  97.8280  0.00  0.00     0.000 OA
ATOM     54   O  SGN C   3     101.106  60.154  96.2140  0.00  0.00     0.000 OA
ATOM     55   O  SGN C   3     100.729  59.335  98.5060  0.00  0.00     0.000 O
ATOM     56   S  SGN C   3     100.104  60.176  97.2380  0.00  0.00     0.000 S
ENDBRANCH 41 51
BRANCH 37 57
ATOM     57  O4  IDS C   4     103.174  58.811 102.7560  0.00  0.00     0.000 O
BRANCH 57 61
ATOM     58  C1  IDS C   4     105.497  60.502 105.2490  0.00  0.00     0.000 C
ATOM     59  C2  IDS C   4     104.797  59.245 105.6580  0.00  0.00     0.000 C
ATOM     60  C3  IDS C   4     103.349  59.186 105.1650  0.00  0.00     0.000 C
ATOM     61  C4  IDS C   4     103.069  59.798 103.8000  0.00  0.00     0.000 C
ATOM     62  C5  IDS C   4     104.007  60.980 103.5310  0.00  0.00     0.000 C
ATOM     63  O5  IDS C   4     105.356  60.665 103.8480  0.00  0.00     0.000 O
ATOM     64   O  IDS C   4     102.597  59.894 106.1330  0.00  0.00     0.000 O
ATOM     66  HD  IDS C   4     102.276  60.623 105.7940  0.00  0.00     0.000 HD
BRANCH 59 66
ATOM     66   O  IDS C   4     105.471  58.048 105.1180  0.00  0.00     0.000 O
ATOM     67   S  IDS C   4     106.198  57.105 106.1740  0.00  0.00     0.000 S
ATOM     68   O  IDS C   4     105.106  56.606 106.9750  0.00  0.00     0.000 OA
ATOM     69   O  IDS C   4     106.877  56.104 105.3740  0.00  0.00     0.000 OA
ATOM     70   O  IDS C   4     107.096  57.944 106.9530  0.00  0.00     0.000 OA
ENDBRANCH 59 66
BRANCH 62 71
ATOM     71   C  IDS C   4     104.019  61.412 102.0770  0.00  0.00     0.000 C
ATOM     72   O  IDS C   4     103.062  61.995 101.6060  0.00  0.00     0.000 OA
ATOM     73   O  IDS C   4     104.980  61.064 101.3620  0.00  0.00     0.000 OA
ENDBRANCH 62 71
BRANCH 58 74
ATOM     74  O4  SGN C   5     105.286  61.570 106.0690  0.00  0.00     0.000 O
BRANCH 74 78
ATOM     75  C1  SGN C   5     106.994  64.814 108.0690  0.00  0.00     0.000 C
ATOM     76  C2  SGN C   5     106.793  64.986 106.5520  0.00  0.00     0.000 C
ATOM     77  C3  SGN C   5     105.864  63.896 106.0010  0.00  0.00     0.000 C
ATOM     78  C4  SGN C   5     106.275  62.512 106.4850  0.00  0.00     0.000 C
ATOM     79  C5  SGN C   5     106.400  62.522 108.0010  0.00  0.00     0.000 C
ATOM     80  O5  SGN C   5     107.404  63.494 108.3990  0.00  0.00     0.000 O
ATOM     81   O  SGN C   5     105.879  63.953 104.5780  0.00  0.00     0.000 O
ATOM     83  HD  SGN C   5     105.924  64.706 104.1540  0.00  0.00     0.000 HD
BRANCH 76 85
ATOM     83   N  SGN C   5     106.840  66.149 105.6570  0.00  0.00     0.000 N
ATOM     85  HD  SGN C   5     107.144  66.926 105.4250  0.00  0.00     0.000 HD
ATOM     85   S  SGN C   5     106.941  67.715 106.0200  0.00  0.00     0.000 S
ATOM     86   O  SGN C   5     107.005  68.497 104.8340  0.00  0.00     0.000 OA
ATOM     87   O  SGN C   5     105.889  68.004 106.9280  0.00  0.00     0.000 OA
ATOM     88   O  SGN C   5     108.311  67.642 106.6900  0.00  0.00     0.000 OA
ENDBRANCH 76 85
BRANCH 79 89
ATOM     89   C  SGN C   5     106.784  61.176 108.5840  0.00  0.00     0.000 C
ATOM     90   O  SGN C   5     106.217  61.037 109.9100  0.00  0.00     0.000 O
ATOM     91   S  SGN C   5     105.822  59.552 110.3730  0.00  0.00     0.000 S
ATOM     92   O  SGN C   5     104.981  59.013 109.3360  0.00  0.00     0.000 OA
ATOM     93   O  SGN C   5     107.050  58.815 110.5240  0.00  0.00     0.000 OA
ATOM     94   O  SGN C   5     105.131  59.766 111.6150  0.00  0.00     0.000 OA
ENDBRANCH 79 89
BRANCH 75 95
ATOM     95  O4  BDP C   6     105.778  65.073 108.6370  0.00  0.00     0.000 O
BRANCH 95 99
ATOM     96  C1  BDP C   6     105.032  67.159 112.3160  0.00  0.00     0.000 C
ATOM     97  C2  BDP C   6     106.386  67.284 111.6780  0.00  0.00     0.000 C
ATOM     98  C3  BDP C   6     106.439  66.835 110.2100  0.00  0.00     0.000 C
ATOM     99  C4  BDP C   6     105.779  65.477 110.0230  0.00  0.00     0.000 C
ATOM    100  C5  BDP C   6     104.390  65.523 110.7010  0.00  0.00     0.000 C
ATOM    101  O5  BDP C   6     104.696  65.805 112.0760  0.00  0.00     0.000 O
BRANCH 100 102
ATOM    102   C  BDP C   6     103.672  64.199 110.6470  0.00  0.00     0.000 C
ATOM    103   O  BDP C   6     102.615  64.043 110.0180  0.00  0.00     0.000 OA
ATOM    104   O  BDP C   6     104.193  63.255 111.2530  0.00  0.00     0.000 OA
ENDBRANCH 100 102
ENDBRANCH 95 99
ENDBRANCH 75 95
ENDBRANCH 74 78
ENDBRANCH 58 74
ENDBRANCH 57 61
ENDBRANCH 37 57
ENDBRANCH 36 40
ENDBRANCH 23 36
ENDBRANCH 22 26
ENDBRANCH 1 22
TORSDOF 20
ENDMDL
MODEL 91
REMARK VINA RESULT:      -0.8     82.883     86.634
ROOT
ATOM      1  C1  NGY C   1      54.829  45.233 101.4860  0.00  0.00     0.000 C
ATOM      2  C2  NGY C   1      54.370  44.900 102.8990  0.00  0.00     0.000 C
ATOM      3  C3  NGY C   1      55.576  44.683 103.8080  0.00  0.00     0.000 C
ATOM      4  C4  NGY C   1      56.461  43.623 103.1790  0.00  0.00     0.000 C
ATOM      5  C5  NGY C   1      56.915  44.115 101.8080  0.00  0.00     0.000 C
ATOM      6  O5  NGY C   1      55.741  44.285 100.9730  0.00  0.00     0.000 O
ATOM      7   O  NGY C   1      55.124  44.303 105.0990  0.00  0.00     0.000 O
ATOM      9  HD  NGY C   1      54.484  43.826 105.4360  0.00  0.00     0.000 HD
ATOM      9   O  NGY C   1      57.588  43.351 103.9990  0.00  0.00     0.000 O
ATOM     11  HD  NGY C   1      56.948  42.874 104.3350  0.00  0.00     0.000 HD
ENDROOT
BRANCH 2 13
ATOM     11   N  NGY C   1      53.380  45.921 103.1460  0.00  0.00     0.000 N
ATOM     13  HD  NGY C   1      52.884  45.493 103.7130  0.00  0.00     0.000 HD
ATOM     13   C  NGY C   1      52.364  45.719 103.9840  0.00  0.00     0.000 C
ATOM     14   O  NGY C   1      52.150  44.607 104.4700  0.00  0.00     0.000 OA
ATOM     15   C  NGY C   1      51.523  46.913 104.3210  0.00  0.00     0.000 C
ENDBRANCH 2 13
BRANCH 5 16
ATOM     16   C  NGY C   1      57.810  43.178 101.0610  0.00  0.00     0.000 C
ATOM     17   O  NGY C   1      61.455  43.543 100.8640  0.00  0.00     0.000 OA
ATOM     18   O  NGY C   1      59.126  43.737 101.0150  0.00  0.00     0.000 O
ATOM     19   S  NGY C   1      60.282  42.727 100.6800  0.00  0.00     0.000 S
ATOM     20   O  NGY C   1      60.107  42.320  99.3100  0.00  0.00     0.000 OA
ATOM     21   O  NGY C   1      60.110  41.644 101.6340  0.00  0.00     0.000 OA
ENDBRANCH 5 16
BRANCH 1 22
ATOM     22  O4  BDP C   2      55.324  46.489 101.4740  0.00  0.00     0.000 O
BRANCH 22 26
ATOM     23  C1  BDP C   2      55.960  50.089  99.5780  0.00  0.00     0.000 C
ATOM     24  C2  BDP C   2      54.535  49.587  99.5580  0.00  0.00     0.000 C
ATOM     25  C3  BDP C   2      54.373  48.486 100.5730  0.00  0.00     0.000 C
ATOM     26  C4  BDP C   2      55.426  47.405 100.3520  0.00  0.00     0.000 C
ATOM     27  C5  BDP C   2      56.802  48.044 100.2130  0.00  0.00     0.000 C
ATOM     28  O5  BDP C   2      56.858  49.028  99.1490  0.00  0.00     0.000 O
ATOM     29   O  BDP C   2      53.602  50.579  99.9860  0.00  0.00     0.000 O
ATOM     31  HD  BDP C   2      52.922  50.299 100.4420  0.00  0.00     0.000 HD
ATOM     31   O  BDP C   2      53.071  47.944 100.3910  0.00  0.00     0.000 O
ATOM     33  HD  BDP C   2      52.390  47.664 100.8470  0.00  0.00     0.000 HD
BRANCH 27 33
ATOM     33   C  BDP C   2      57.878  47.034  99.8950  0.00  0.00     0.000 C
ATOM     34   O  BDP C   2      58.985  47.031 100.4860  0.00  0.00     0.000 OA
ATOM     35   O  BDP C   2      57.668  46.221  99.0100  0.00  0.00     0.000 OA
ENDBRANCH 27 33
BRANCH 23 36
ATOM     36  O4  SGN C   3      56.204  51.171  98.8010  0.00  0.00     0.000 O
BRANCH 36 40
ATOM     37  C1  SGN C   3      58.383  54.717  98.4810  0.00  0.00     0.000 C
ATOM     38  C2  SGN C   3      59.019  53.435  97.9200  0.00  0.00     0.000 C
ATOM     39  C3  SGN C   3      57.960  52.361  97.7160  0.00  0.00     0.000 C
ATOM     40  C4  SGN C   3      57.245  52.124  99.0280  0.00  0.00     0.000 C
ATOM     41  C5  SGN C   3      56.673  53.437  99.5160  0.00  0.00     0.000 C
ATOM     42  O5  SGN C   3      57.732  54.390  99.6980  0.00  0.00     0.000 O
ATOM     43   O  SGN C   3      58.585  51.170  97.2530  0.00  0.00     0.000 O
ATOM     45  HD  SGN C   3      57.859  50.975  97.6840  0.00  0.00     0.000 HD
BRANCH 38 47
ATOM     45   N  SGN C   3      60.160  54.353  98.0840  0.00  0.00     0.000 N
ATOM     47  HD  SGN C   3      59.505  53.917  98.4460  0.00  0.00     0.000 HD
ATOM     47   S  SGN C   3      61.104  54.366  96.8050  0.00  0.00     0.000 S
ATOM     48   O  SGN C   3      61.751  53.114  96.6270  0.00  0.00     0.000 OA
ATOM     49   O  SGN C   3      60.313  54.838  95.7170  0.00  0.00     0.000 OA
ATOM     50   O  SGN C   3      62.120  55.342  97.1960  0.00  0.00     0.000 OA
ENDBRANCH 38 47
BRANCH 41 51
ATOM     51   C  SGN C   3      55.927  53.338 100.8190  0.00  0.00     0.000 C
ATOM     52   O  SGN C   3      52.296  53.944 101.3910  0.00  0.00     0.000 OA
ATOM     53   O  SGN C   3      53.769  52.388 102.4600  0.00  0.00     0.000 OA
ATOM     54   O  SGN C   3      54.106  54.751 102.7120  0.00  0.00     0.000 OA
ATOM     55   O  SGN C   3      54.561  53.598 100.5830  0.00  0.00     0.000 O
ATOM     56   S  SGN C   3      53.594  53.679 101.9120  0.00  0.00     0.000 S
ENDBRANCH 41 51
BRANCH 37 57
ATOM     57  O4  IDS C   4      57.477  55.305  97.6610  0.00  0.00     0.000 O
BRANCH 57 61
ATOM     58  C1  IDS C   4      56.125  58.133  95.5050  0.00  0.00     0.000 C
ATOM     59  C2  IDS C   4      57.515  57.640  95.2540  0.00  0.00     0.000 C
ATOM     60  C3  IDS C   4      58.275  57.329  96.5460  0.00  0.00     0.000 C
ATOM     61  C4  IDS C   4      57.460  56.745  97.6920  0.00  0.00     0.000 C
ATOM     62  C5  IDS C   4      56.022  57.277  97.6630  0.00  0.00     0.000 C
ATOM     63  O5  IDS C   4      55.464  57.214  96.3580  0.00  0.00     0.000 O
ATOM     64   O  IDS C   4      58.814  58.568  96.9690  0.00  0.00     0.000 O
ATOM     66  HD  IDS C   4      58.440  58.825  97.7070  0.00  0.00     0.000 HD
BRANCH 59 66
ATOM     66   O  IDS C   4      57.514  56.397  94.4600  0.00  0.00     0.000 O
ATOM     67   S  IDS C   4      58.099  56.497  92.9830  0.00  0.00     0.000 S
ATOM     68   O  IDS C   4      59.489  56.816  93.2010  0.00  0.00     0.000 OA
ATOM     69   O  IDS C   4      57.855  55.193  92.3970  0.00  0.00     0.000 OA
ATOM     70   O  IDS C   4      57.397  57.582  92.3160  0.00  0.00     0.000 OA
ENDBRANCH 59 66
BRANCH 62 71
ATOM     71   C  IDS C   4      55.078  56.488  98.5500  0.00  0.00     0.000 C
ATOM     72   O  IDS C   4      54.256  55.741  98.0550  0.00  0.00     0.000 OA
ATOM     73   O  IDS C   4      55.098  56.704  99.7780  0.00  0.00     0.000 OA
ENDBRANCH 62 71
BRANCH 58 74
ATOM     74  O4  SGN C   5      56.026  59.469  95.7600  0.00  0.00     0.000 O
BRANCH 74 78
ATOM     75  C1  SGN C   5      53.831  62.963  95.1140  0.00  0.00     0.000 C
ATOM     76  C2  SGN C   5      53.374  62.086  96.2960  0.00  0.00     0.000 C
ATOM     77  C3  SGN C   5      54.442  61.039  96.6390  0.00  0.00     0.000 C
ATOM     78  C4  SGN C   5      54.932  60.310  95.3960  0.00  0.00     0.000 C
ATOM     79  C5  SGN C   5      55.364  61.326  94.3490  0.00  0.00     0.000 C
ATOM     80  O5  SGN C   5      54.238  62.175  94.0030  0.00  0.00     0.000 O
ATOM     81   O  SGN C   5      53.899  60.117  97.5780  0.00  0.00     0.000 O
ATOM     83  HD  SGN C   5      53.357  60.371  98.2040  0.00  0.00     0.000 HD
BRANCH 76 85
ATOM     83   N  SGN C   5      53.162  63.125  97.3120  0.00  0.00     0.000 N
ATOM     85  HD  SGN C   5      52.759  63.445  98.0080  0.00  0.00     0.000 HD
ATOM     85   S  SGN C   5      51.784  63.690  97.9240  0.00  0.00     0.000 S
ATOM     86   O  SGN C   5      52.048  64.667  98.9230  0.00  0.00     0.000 OA
ATOM     87   O  SGN C   5      50.972  64.089  96.8300  0.00  0.00     0.000 OA
ATOM     88   O  SGN C   5      51.334  62.378  98.5610  0.00  0.00     0.000 OA
ENDBRANCH 76 85
BRANCH 79 89
ATOM     89   C  SGN C   5      55.893  60.695  93.0770  0.00  0.00     0.000 C
ATOM     90   O  SGN C   5      56.109  61.719  92.0750  0.00  0.00     0.000 O
ATOM     91   S  SGN C   5      57.304  61.467  91.0330  0.00  0.00     0.000 S
ATOM     92   O  SGN C   5      58.476  61.184  91.8190  0.00  0.00     0.000 OA
ATOM     93   O  SGN C   5      56.915  60.355  90.2040  0.00  0.00     0.000 OA
ATOM     94   O  SGN C   5      57.382  62.710  90.3140  0.00  0.00     0.000 OA
ENDBRANCH 79 89
BRANCH 75 95
ATOM     95  O4  BDP C   6      54.894  63.686  95.5770  0.00  0.00     0.000 O
BRANCH 95 99
ATOM     96  C1  BDP C   6      56.197  67.666  94.6250  0.00  0.00     0.000 C
ATOM     97  C2  BDP C   6      54.723  67.380  94.6640  0.00  0.00     0.000 C
ATOM     98  C3  BDP C   6      54.350  66.070  95.3740  0.00  0.00     0.000 C
ATOM     99  C4  BDP C   6      55.202  64.911  94.8770  0.00  0.00     0.000 C
ATOM    100  C5  BDP C   6      56.684  65.350  94.9310  0.00  0.00     0.000 C
ATOM    101  O5  BDP C   6      56.731  66.487  94.0530  0.00  0.00     0.000 O
BRANCH 100 102
ATOM    102   C  BDP C   6      57.621  64.303  94.3850  0.00  0.00     0.000 C
ATOM    103   O  BDP C   6      58.091  63.401  95.0940  0.00  0.00     0.000 OA
ATOM    104   O  BDP C   6      57.897  64.373  93.1820  0.00  0.00     0.000 OA
ENDBRANCH 100 102
ENDBRANCH 95 99
ENDBRANCH 75 95
ENDBRANCH 74 78
ENDBRANCH 58 74
ENDBRANCH 57 61
ENDBRANCH 37 57
ENDBRANCH 36 40
ENDBRANCH 23 36
ENDBRANCH 22 26
ENDBRANCH 1 22
TORSDOF 20
ENDMDL
MODEL 92
REMARK VINA RESULT:      -0.8     89.564     95.276
ROOT
ATOM      1  C1  NGY C   1     115.522  40.649  48.8500  0.00  0.00     0.000 C
ATOM      2  C2  NGY C   1     116.490  40.978  47.7230  0.00  0.00     0.000 C
ATOM      3  C3  NGY C   1     115.997  40.375  46.4110  0.00  0.00     0.000 C
ATOM      4  C4  NGY C   1     115.776  38.890  46.6230  0.00  0.00     0.000 C
ATOM      5  C5  NGY C   1     114.729  38.701  47.7170  0.00  0.00     0.000 C
ATOM      6  O5  NGY C   1     115.250  39.267  48.9470  0.00  0.00     0.000 O
ATOM      7   O  NGY C   1     116.951  40.633  45.3910  0.00  0.00     0.000 O
ATOM      9  HD  NGY C   1     117.814  40.678  45.3220  0.00  0.00     0.000 HD
ATOM      9   O  NGY C   1     115.347  38.263  45.4230  0.00  0.00     0.000 O
ATOM     11  HD  NGY C   1     116.209  38.309  45.3540  0.00  0.00     0.000 HD
ENDROOT
BRANCH 2 13
ATOM     11   N  NGY C   1     116.678  42.403  47.8550  0.00  0.00     0.000 N
ATOM     13  HD  NGY C   1     117.493  42.458  47.5660  0.00  0.00     0.000 HD
ATOM     13   C  NGY C   1     117.828  42.989  47.5230  0.00  0.00     0.000 C
ATOM     14   O  NGY C   1     118.820  42.322  47.2260  0.00  0.00     0.000 OA
ATOM     15   C  NGY C   1     117.838  44.487  47.5040  0.00  0.00     0.000 C
ENDBRANCH 2 13
BRANCH 5 16
ATOM     16   C  NGY C   1     114.393  37.280  48.0360  0.00  0.00     0.000 C
ATOM     17   O  NGY C   1     111.557  35.466  46.5780  0.00  0.00     0.000 OA
ATOM     18   O  NGY C   1     113.119  36.969  47.4660  0.00  0.00     0.000 O
ATOM     19   S  NGY C   1     112.801  35.439  47.3050  0.00  0.00     0.000 S
ATOM     20   O  NGY C   1     112.650  34.894  48.6290  0.00  0.00     0.000 OA
ATOM     21   O  NGY C   1     113.942  34.902  46.5830  0.00  0.00     0.000 OA
ENDBRANCH 5 16
BRANCH 1 22
ATOM     22  O4  BDP C   2     114.404  41.388  48.6930  0.00  0.00     0.000 O
BRANCH 22 26
ATOM     23  C1  BDP C   2     111.221  43.498  50.2370  0.00  0.00     0.000 C
ATOM     24  C2  BDP C   2     112.586  43.949  50.7000  0.00  0.00     0.000 C
ATOM     25  C3  BDP C   2     113.644  43.361  49.8040  0.00  0.00     0.000 C
ATOM     26  C4  BDP C   2     113.478  41.848  49.7120  0.00  0.00     0.000 C
ATOM     27  C5  BDP C   2     112.025  41.505  49.4120  0.00  0.00     0.000 C
ATOM     28  O5  BDP C   2     111.105  42.056  50.3900  0.00  0.00     0.000 O
ATOM     29   O  BDP C   2     112.771  45.358  50.5590  0.00  0.00     0.000 O
ATOM     31  HD  BDP C   2     113.565  45.624  50.3380  0.00  0.00     0.000 HD
ATOM     31   O  BDP C   2     114.903  43.680  50.3850  0.00  0.00     0.000 O
ATOM     33  HD  BDP C   2     115.696  43.946  50.1640  0.00  0.00     0.000 HD
BRANCH 27 33
ATOM     33   C  BDP C   2     111.772  40.016  49.4050  0.00  0.00     0.000 C
ATOM     34   O  BDP C   2     112.139  39.275  50.3480  0.00  0.00     0.000 OA
ATOM     35   O  BDP C   2     111.224  39.525  48.4320  0.00  0.00     0.000 OA
ENDBRANCH 27 33
BRANCH 23 36
ATOM     36  O4  SGN C   3     110.175  44.064  50.8810  0.00  0.00     0.000 O
BRANCH 36 40
ATOM     37  C1  SGN C   3     106.362  45.712  50.4550  0.00  0.00     0.000 C
ATOM     38  C2  SGN C   3     106.474  44.180  50.5320  0.00  0.00     0.000 C
ATOM     39  C3  SGN C   3     107.820  43.774  51.1140  0.00  0.00     0.000 C
ATOM     40  C4  SGN C   3     108.920  44.391  50.2770  0.00  0.00     0.000 C
ATOM     41  C5  SGN C   3     108.719  45.890  50.2370  0.00  0.00     0.000 C
ATOM     42  O5  SGN C   3     107.438  46.192  49.6640  0.00  0.00     0.000 O
ATOM     43   O  SGN C   3     107.919  42.355  51.1180  0.00  0.00     0.000 O
ATOM     45  HD  SGN C   3     108.709  42.705  51.0650  0.00  0.00     0.000 HD
BRANCH 38 47
ATOM     45   N  SGN C   3     105.154  44.376  49.9060  0.00  0.00     0.000 N
ATOM     47  HD  SGN C   3     106.014  44.474  49.8640  0.00  0.00     0.000 HD
ATOM     47   S  SGN C   3     104.024  43.510  50.6120  0.00  0.00     0.000 S
ATOM     48   O  SGN C   3     104.241  42.120  50.4220  0.00  0.00     0.000 OA
ATOM     49   O  SGN C   3     103.942  43.967  51.9610  0.00  0.00     0.000 OA
ATOM     50   O  SGN C   3     102.838  43.885  49.8430  0.00  0.00     0.000 OA
ENDBRANCH 38 47
BRANCH 41 51
ATOM     51   C  SGN C   3     109.756  46.629  49.4360  0.00  0.00     0.000 C
ATOM     52   O  SGN C   3     110.971  45.802  46.0130  0.00  0.00     0.000 OA
ATOM     53   O  SGN C   3     110.688  47.938  47.0540  0.00  0.00     0.000 OA
ATOM     54   O  SGN C   3     112.302  46.376  47.9020  0.00  0.00     0.000 OA
ATOM     55   O  SGN C   3     109.881  46.012  48.1740  0.00  0.00     0.000 O
ATOM     56   S  SGN C   3     111.074  46.586  47.1960  0.00  0.00     0.000 S
ENDBRANCH 41 51
BRANCH 37 57
ATOM     57  O4  IDS C   4     106.403  46.343  51.6540  0.00  0.00     0.000 O
BRANCH 57 61
ATOM     58  C1  IDS C   4     104.950  48.533  54.4040  0.00  0.00     0.000 C
ATOM     59  C2  IDS C   4     104.119  47.413  53.8640  0.00  0.00     0.000 C
ATOM     60  C3  IDS C   4     104.246  47.261  52.3460  0.00  0.00     0.000 C
ATOM     61  C4  IDS C   4     105.615  47.546  51.7450  0.00  0.00     0.000 C
ATOM     62  C5  IDS C   4     106.350  48.623  52.5520  0.00  0.00     0.000 C
ATOM     63  O5  IDS C   4     106.283  48.372  53.9480  0.00  0.00     0.000 O
ATOM     64   O  IDS C   4     103.320  48.182  51.8010  0.00  0.00     0.000 O
ATOM     66  HD  IDS C   4     103.734  48.817  51.3840  0.00  0.00     0.000 HD
BRANCH 59 66
ATOM     66   O  IDS C   4     104.512  46.116  54.4480  0.00  0.00     0.000 O
ATOM     67   S  IDS C   4     103.482  45.455  55.4660  0.00  0.00     0.000 S
ATOM     68   O  IDS C   4     102.335  45.174  54.6360  0.00  0.00     0.000 OA
ATOM     69   O  IDS C   4     104.165  44.284  55.9800  0.00  0.00     0.000 OA
ATOM     70   O  IDS C   4     103.179  46.452  56.4800  0.00  0.00     0.000 OA
ENDBRANCH 59 66
BRANCH 62 71
ATOM     71   C  IDS C   4     107.828  48.708  52.2220  0.00  0.00     0.000 C
ATOM     72   O  IDS C   4     108.655  48.308  53.0180  0.00  0.00     0.000 OA
ATOM     73   O  IDS C   4     108.169  49.288  51.1720  0.00  0.00     0.000 OA
ENDBRANCH 62 71
BRANCH 58 74
ATOM     74  O4  SGN C   5     104.368  49.765  54.3380  0.00  0.00     0.000 O
BRANCH 74 78
ATOM     75  C1  SGN C   5     103.691  53.406  56.2680  0.00  0.00     0.000 C
ATOM     76  C2  SGN C   5     105.126  53.167  55.7610  0.00  0.00     0.000 C
ATOM     77  C3  SGN C   5     105.166  51.980  54.7890  0.00  0.00     0.000 C
ATOM     78  C4  SGN C   5     104.428  50.772  55.3480  0.00  0.00     0.000 C
ATOM     79  C5  SGN C   5     103.027  51.186  55.7740  0.00  0.00     0.000 C
ATOM     80  O5  SGN C   5     103.114  52.217  56.7930  0.00  0.00     0.000 O
ATOM     81   O  SGN C   5     106.525  51.653  54.5170  0.00  0.00     0.000 O
ATOM     83  HD  SGN C   5     107.134  52.265  54.4440  0.00  0.00     0.000 HD
BRANCH 76 85
ATOM     83   N  SGN C   5     105.204  54.587  55.3990  0.00  0.00     0.000 N
ATOM     85  HD  SGN C   5     105.632  55.283  55.1120  0.00  0.00     0.000 HD
ATOM     85   S  SGN C   5     106.380  55.652  55.6810  0.00  0.00     0.000 S
ATOM     86   O  SGN C   5     106.055  56.913  55.1100  0.00  0.00     0.000 OA
ATOM     87   O  SGN C   5     106.646  55.622  57.0740  0.00  0.00     0.000 OA
ATOM     88   O  SGN C   5     107.446  54.944  54.8490  0.00  0.00     0.000 OA
ENDBRANCH 76 85
BRANCH 79 89
ATOM     89   C  SGN C   5     102.200  50.042  56.3240  0.00  0.00     0.000 C
ATOM     90   O  SGN C   5     102.293  50.021  57.7700  0.00  0.00     0.000 O
ATOM     91   S  SGN C   5     101.008  49.484  58.5670  0.00  0.00     0.000 S
ATOM     92   O  SGN C   5      99.883  50.239  58.0810  0.00  0.00     0.000 OA
ATOM     93   O  SGN C   5     100.891  48.076  58.2820  0.00  0.00     0.000 OA
ATOM     94   O  SGN C   5     101.332  49.760  59.9400  0.00  0.00     0.000 OA
ENDBRANCH 79 89
BRANCH 75 95
ATOM     95  O4  BDP C   6     102.976  53.822  55.1810  0.00  0.00     0.000 O
BRANCH 95 99
ATOM     96  C1  BDP C   6      99.481  56.294  54.8360  0.00  0.00     0.000 C
ATOM     97  C2  BDP C   6     100.564  56.704  55.7950  0.00  0.00     0.000 C
ATOM     98  C3  BDP C   6     101.908  55.994  55.5740  0.00  0.00     0.000 C
ATOM     99  C4  BDP C   6     101.723  54.490  55.4410  0.00  0.00     0.000 C
ATOM    100  C5  BDP C   6     100.608  54.235  54.4000  0.00  0.00     0.000 C
ATOM    101  O5  BDP C   6      99.460  54.885  54.9710  0.00  0.00     0.000 O
BRANCH 100 102
ATOM    102   C  BDP C   6     100.282  52.772  54.2420  0.00  0.00     0.000 C
ATOM    103   O  BDP C   6      99.583  52.157  55.0610  0.00  0.00     0.000 OA
ATOM    104   O  BDP C   6     100.737  52.203  53.2430  0.00  0.00     0.000 OA
ENDBRANCH 100 102
ENDBRANCH 95 99
ENDBRANCH 75 95
ENDBRANCH 74 78
ENDBRANCH 58 74
ENDBRANCH 57 61
ENDBRANCH 37 57
ENDBRANCH 36 40
ENDBRANCH 23 36
ENDBRANCH 22 26
ENDBRANCH 1 22
TORSDOF 20
ENDMDL
MODEL 93
REMARK VINA RESULT:      -0.8    111.929    116.216
ROOT
ATOM      1  C1  NGY C   1     119.682  33.931  91.1350  0.00  0.00     0.000 C
ATOM      2  C2  NGY C   1     119.378  35.412  91.3080  0.00  0.00     0.000 C
ATOM      3  C3  NGY C   1     118.662  35.953  90.0750  0.00  0.00     0.000 C
ATOM      4  C4  NGY C   1     119.507  35.634  88.8560  0.00  0.00     0.000 C
ATOM      5  C5  NGY C   1     119.667  34.120  88.7530  0.00  0.00     0.000 C
ATOM      6  O5  NGY C   1     120.371  33.655  89.9340  0.00  0.00     0.000 O
ATOM      7   O  NGY C   1     118.455  37.349  90.2300  0.00  0.00     0.000 O
ATOM      9  HD  NGY C   1     118.879  38.023  90.5710  0.00  0.00     0.000 HD
ATOM      9   O  NGY C   1     118.908  36.143  87.6740  0.00  0.00     0.000 O
ATOM     11  HD  NGY C   1     119.332  36.817  88.0160  0.00  0.00     0.000 HD
ENDROOT
BRANCH 2 13
ATOM     11   N  NGY C   1     118.792  35.453  92.6270  0.00  0.00     0.000 N
ATOM     13  HD  NGY C   1     119.013  36.261  92.8480  0.00  0.00     0.000 HD
ATOM     13   C  NGY C   1     118.877  36.537  93.3960  0.00  0.00     0.000 C
ATOM     14   O  NGY C   1     119.581  37.495  93.0710  0.00  0.00     0.000 OA
ATOM     15   C  NGY C   1     118.058  36.539  94.6510  0.00  0.00     0.000 C
ENDBRANCH 2 13
BRANCH 5 16
ATOM     16   C  NGY C   1     120.474  33.643  87.5880  0.00  0.00     0.000 C
ATOM     17   O  NGY C   1     119.018  32.365  84.4730  0.00  0.00     0.000 OA
ATOM     18   O  NGY C   1     119.597  33.020  86.6460  0.00  0.00     0.000 O
ATOM     19   S  NGY C   1     120.165  32.862  85.1900  0.00  0.00     0.000 S
ATOM     20   O  NGY C   1     121.233  31.899  85.2510  0.00  0.00     0.000 OA
ATOM     21   O  NGY C   1     120.608  34.197  84.8230  0.00  0.00     0.000 OA
ENDBRANCH 5 16
BRANCH 1 22
ATOM     22  O4  BDP C   2     118.531  33.235  91.2440  0.00  0.00     0.000 O
BRANCH 22 26
ATOM     23  C1  BDP C   2     116.444  29.872  92.3840  0.00  0.00     0.000 C
ATOM     24  C2  BDP C   2     117.292  30.506  93.4610  0.00  0.00     0.000 C
ATOM     25  C3  BDP C   2     117.695  31.894  93.0350  0.00  0.00     0.000 C
ATOM     26  C4  BDP C   2     118.350  31.855  91.6580  0.00  0.00     0.000 C
ATOM     27  C5  BDP C   2     117.490  31.042  90.7000  0.00  0.00     0.000 C
ATOM     28  O5  BDP C   2     117.239  29.695  91.1770  0.00  0.00     0.000 O
ATOM     29   O  BDP C   2     116.564  30.723  94.6700  0.00  0.00     0.000 O
ATOM     31  HD  BDP C   2     116.760  31.439  95.1160  0.00  0.00     0.000 HD
ATOM     31   O  BDP C   2     118.621  32.371  94.0030  0.00  0.00     0.000 O
ATOM     33  HD  BDP C   2     118.816  33.087  94.4500  0.00  0.00     0.000 HD
BRANCH 27 33
ATOM     33   C  BDP C   2     118.132  30.882  89.3420  0.00  0.00     0.000 C
ATOM     34   O  BDP C   2     119.333  30.546  89.2090  0.00  0.00     0.000 OA
ATOM     35   O  BDP C   2     117.462  31.123  88.3520  0.00  0.00     0.000 OA
ENDBRANCH 27 33
BRANCH 23 36
ATOM     36  O4  SGN C   3     115.909  28.670  92.7010  0.00  0.00     0.000 O
BRANCH 36 40
ATOM     37  C1  SGN C   3     112.513  26.253  92.4680  0.00  0.00     0.000 C
ATOM     38  C2  SGN C   3     113.445  26.295  91.2460  0.00  0.00     0.000 C
ATOM     39  C3  SGN C   3     114.810  26.842  91.6370  0.00  0.00     0.000 C
ATOM     40  C4  SGN C   3     114.627  28.204  92.2700  0.00  0.00     0.000 C
ATOM     41  C5  SGN C   3     113.682  28.074  93.4440  0.00  0.00     0.000 C
ATOM     42  O5  SGN C   3     112.416  27.568  92.9930  0.00  0.00     0.000 O
ATOM     43   O  SGN C   3     115.631  26.925  90.4780  0.00  0.00     0.000 O
ATOM     45  HD  SGN C   3     115.878  27.518  91.0580  0.00  0.00     0.000 HD
BRANCH 38 47
ATOM     45   N  SGN C   3     112.181  25.802  90.6690  0.00  0.00     0.000 N
ATOM     47  HD  SGN C   3     112.613  26.439  91.0670  0.00  0.00     0.000 HD
ATOM     47   S  SGN C   3     112.400  24.511  89.7670  0.00  0.00     0.000 S
ATOM     48   O  SGN C   3     113.161  24.813  88.6070  0.00  0.00     0.000 OA
ATOM     49   O  SGN C   3     112.916  23.496  90.6260  0.00  0.00     0.000 OA
ATOM     50   O  SGN C   3     111.035  24.212  89.3400  0.00  0.00     0.000 OA
ENDBRANCH 38 47
BRANCH 41 51
ATOM     51   C  SGN C   3     113.418  29.365  94.1690  0.00  0.00     0.000 C
ATOM     52   O  SGN C   3     112.519  32.652  92.6640  0.00  0.00     0.000 OA
ATOM     53   O  SGN C   3     111.835  31.692  94.7470  0.00  0.00     0.000 OA
ATOM     54   O  SGN C   3     114.138  32.254  94.3640  0.00  0.00     0.000 OA
ATOM     55   O  SGN C   3     113.062  30.352  93.2260  0.00  0.00     0.000 O
ATOM     56   S  SGN C   3     112.872  31.880  93.8060  0.00  0.00     0.000 S
ENDBRANCH 41 51
BRANCH 37 57
ATOM     57  O4  IDS C   4     112.921  25.429  93.4630  0.00  0.00     0.000 O
BRANCH 57 61
ATOM     58  C1  IDS C   4     112.606  22.424  95.7750  0.00  0.00     0.000 C
ATOM     59  C2  IDS C   4     112.475  22.212  94.3000  0.00  0.00     0.000 C
ATOM     60  C3  IDS C   4     111.683  23.326  93.6110  0.00  0.00     0.000 C
ATOM     61  C4  IDS C   4     111.869  24.734  94.1600  0.00  0.00     0.000 C
ATOM     62  C5  IDS C   4     112.141  24.698  95.6680  0.00  0.00     0.000 C
ATOM     63  O5  IDS C   4     113.120  23.725  96.0040  0.00  0.00     0.000 O
ATOM     64   O  IDS C   4     110.323  22.965  93.7630  0.00  0.00     0.000 O
ATOM     66  HD  IDS C   4     109.916  23.526  94.2820  0.00  0.00     0.000 HD
BRANCH 59 66
ATOM     66   O  IDS C   4     113.793  22.165  93.6390  0.00  0.00     0.000 O
ATOM     67   S  IDS C   4     114.246  20.755  93.0570  0.00  0.00     0.000 S
ATOM     68   O  IDS C   4     113.281  20.505  92.0140  0.00  0.00     0.000 OA
ATOM     69   O  IDS C   4     115.605  20.961  92.5960  0.00  0.00     0.000 OA
ATOM     70   O  IDS C   4     114.132  19.787  94.1370  0.00  0.00     0.000 OA
ENDBRANCH 59 66
BRANCH 62 71
ATOM     71   C  IDS C   4     112.669  26.013  96.2090  0.00  0.00     0.000 C
ATOM     72   O  IDS C   4     111.921  26.962  96.3410  0.00  0.00     0.000 OA
ATOM     73   O  IDS C   4     113.895  26.122  96.4120  0.00  0.00     0.000 OA
ENDBRANCH 62 71
BRANCH 58 74
ATOM     74  O4  SGN C   5     111.549  21.986  96.5160  0.00  0.00     0.000 O
BRANCH 74 78
ATOM     75  C1  SGN C   5     110.322  20.366 100.1650  0.00  0.00     0.000 C
ATOM     76  C2  SGN C   5     111.198  21.630 100.2470  0.00  0.00     0.000 C
ATOM     77  C3  SGN C   5     111.293  22.315  98.8770  0.00  0.00     0.000 C
ATOM     78  C4  SGN C   5     111.630  21.319  97.7750  0.00  0.00     0.000 C
ATOM     79  C5  SGN C   5     110.653  20.154  97.8280  0.00  0.00     0.000 C
ATOM     80  O5  SGN C   5     110.748  19.499  99.1210  0.00  0.00     0.000 O
ATOM     81   O  SGN C   5     112.277  23.342  98.9410  0.00  0.00     0.000 O
ATOM     83  HD  SGN C   5     112.381  23.827  99.6510  0.00  0.00     0.000 HD
BRANCH 76 85
ATOM     83   N  SGN C   5     110.975  21.518 101.6940  0.00  0.00     0.000 N
ATOM     85  HD  SGN C   5     110.610  21.775 102.4360  0.00  0.00     0.000 HD
ATOM     85   S  SGN C   5     110.864  22.679 102.8050  0.00  0.00     0.000 S
ATOM     86   O  SGN C   5     110.598  22.118 104.0840  0.00  0.00     0.000 OA
ATOM     87   O  SGN C   5     112.023  23.488 102.6830  0.00  0.00     0.000 OA
ATOM     88   O  SGN C   5     109.609  23.335 102.2340  0.00  0.00     0.000 OA
ENDBRANCH 76 85
BRANCH 79 89
ATOM     89   C  SGN C   5     110.893  19.116  96.7500  0.00  0.00     0.000 C
ATOM     90   O  SGN C   5     112.300  18.775  96.7030  0.00  0.00     0.000 O
ATOM     91   S  SGN C   5     112.663  17.274  96.2650  0.00  0.00     0.000 S
ATOM     92   O  SGN C   5     111.896  16.405  97.1180  0.00  0.00     0.000 OA
ATOM     93   O  SGN C   5     112.305  17.139  94.8770  0.00  0.00     0.000 OA
ATOM     94   O  SGN C   5     114.080  17.196  96.4950  0.00  0.00     0.000 OA
ENDBRANCH 79 89
BRANCH 75 95
ATOM     95  O4  BDP C   6     109.055  20.807  99.9060  0.00  0.00     0.000 O
BRANCH 95 99
ATOM     96  C1  BDP C   6     105.259  19.190 101.1000  0.00  0.00     0.000 C
ATOM     97  C2  BDP C   6     106.435  19.028 102.0220  0.00  0.00     0.000 C
ATOM     98  C3  BDP C   6     107.622  19.948 101.7030  0.00  0.00     0.000 C
ATOM     99  C4  BDP C   6     107.973  19.904 100.2230  0.00  0.00     0.000 C
ATOM    100  C5  BDP C   6     106.672  20.120  99.4160  0.00  0.00     0.000 C
ATOM    101  O5  BDP C   6     105.839  19.021  99.8200  0.00  0.00     0.000 O
BRANCH 100 102
ATOM    102   C  BDP C   6     106.886  20.018  97.9270  0.00  0.00     0.000 C
ATOM    103   O  BDP C   6     107.118  18.938  97.3650  0.00  0.00     0.000 OA
ATOM    104   O  BDP C   6     106.808  21.068  97.2780  0.00  0.00     0.000 OA
ENDBRANCH 100 102
ENDBRANCH 95 99
ENDBRANCH 75 95
ENDBRANCH 74 78
ENDBRANCH 58 74
ENDBRANCH 57 61
ENDBRANCH 37 57
ENDBRANCH 36 40
ENDBRANCH 23 36
ENDBRANCH 22 26
ENDBRANCH 1 22
TORSDOF 20
ENDMDL
MODEL 94
REMARK VINA RESULT:      -0.3     15.765     25.512
ROOT
ATOM      1  C1  NGY C   1      17.767  41.092  30.3610  0.00  0.00     0.000 C
ATOM      2  C2  NGY C   1      18.864  40.079  30.6580  0.00  0.00     0.000 C
ATOM      3  C3  NGY C   1      18.265  38.686  30.8280  0.00  0.00     0.000 C
ATOM      4  C4  NGY C   1      17.186  38.759  31.8910  0.00  0.00     0.000 C
ATOM      5  C5  NGY C   1      16.113  39.743  31.4340  0.00  0.00     0.000 C
ATOM      6  O5  NGY C   1      16.722  41.054  31.3090  0.00  0.00     0.000 O
ATOM      7   O  NGY C   1      19.297  37.774  31.1750  0.00  0.00     0.000 O
ATOM      9  HD  NGY C   1      20.019  37.781  31.6520  0.00  0.00     0.000 HD
ATOM      9   O  NGY C   1      16.611  37.481  32.1200  0.00  0.00     0.000 O
ATOM     11  HD  NGY C   1      17.334  37.488  32.5970  0.00  0.00     0.000 HD
ENDROOT
BRANCH 2 13
ATOM     11   N  NGY C   1      20.040  40.794  30.2210  0.00  0.00     0.000 N
ATOM     13  HD  NGY C   1      20.552  40.117  30.0490  0.00  0.00     0.000 HD
ATOM     13   C  NGY C   1      21.144  40.154  29.8390  0.00  0.00     0.000 C
ATOM     14   O  NGY C   1      21.255  38.935  29.9800  0.00  0.00     0.000 OA
ATOM     15   C  NGY C   1      22.220  40.986  29.2110  0.00  0.00     0.000 C
ENDBRANCH 2 13
BRANCH 5 16
ATOM     16   C  NGY C   1      14.967  39.918  32.3780  0.00  0.00     0.000 C
ATOM     17   O  NGY C   1      15.140  41.890  35.4670  0.00  0.00     0.000 OA
ATOM     18   O  NGY C   1      15.444  40.555  33.5670  0.00  0.00     0.000 O
ATOM     19   S  NGY C   1      14.344  41.219  34.4710  0.00  0.00     0.000 S
ATOM     20   O  NGY C   1      13.552  40.155  35.0280  0.00  0.00     0.000 OA
ATOM     21   O  NGY C   1      13.602  42.084  33.5680  0.00  0.00     0.000 OA
ENDBRANCH 5 16
BRANCH 1 22
ATOM     22  O4  BDP C   2      17.330  40.901  29.0980  0.00  0.00     0.000 O
BRANCH 22 26
ATOM     23  C1  BDP C   2      15.919  42.362  25.5150  0.00  0.00     0.000 C
ATOM     24  C2  BDP C   2      17.189  43.003  26.0230  0.00  0.00     0.000 C
ATOM     25  C3  BDP C   2      17.783  42.151  27.1140  0.00  0.00     0.000 C
ATOM     26  C4  BDP C   2      16.742  41.873  28.1930  0.00  0.00     0.000 C
ATOM     27  C5  BDP C   2      15.446  41.397  27.5500  0.00  0.00     0.000 C
ATOM     28  O5  BDP C   2      14.924  42.339  26.5770  0.00  0.00     0.000 O
ATOM     29   O  BDP C   2      18.214  43.041  25.0300  0.00  0.00     0.000 O
ATOM     31  HD  BDP C   2      19.027  42.929  25.3080  0.00  0.00     0.000 HD
ATOM     31   O  BDP C   2      18.872  42.883  27.6630  0.00  0.00     0.000 O
ATOM     33  HD  BDP C   2      19.684  42.771  27.9410  0.00  0.00     0.000 HD
BRANCH 27 33
ATOM     33   C  BDP C   2      14.340  41.197  28.5590  0.00  0.00     0.000 C
ATOM     34   O  BDP C   2      14.014  42.092  29.3760  0.00  0.00     0.000 OA
ATOM     35   O  BDP C   2      13.777  40.115  28.5960  0.00  0.00     0.000 OA
ENDBRANCH 27 33
BRANCH 23 36
ATOM     36  O4  SGN C   3      15.356  42.963  24.4410  0.00  0.00     0.000 O
BRANCH 36 40
ATOM     37  C1  SGN C   3      13.474  42.388  20.7590  0.00  0.00     0.000 C
ATOM     38  C2  SGN C   3      12.652  42.121  22.0300  0.00  0.00     0.000 C
ATOM     39  C3  SGN C   3      13.308  42.779  23.2350  0.00  0.00     0.000 C
ATOM     40  C4  SGN C   3      14.731  42.278  23.3520  0.00  0.00     0.000 C
ATOM     41  C5  SGN C   3      15.455  42.559  22.0540  0.00  0.00     0.000 C
ATOM     42  O5  SGN C   3      14.787  41.894  20.9710  0.00  0.00     0.000 O
ATOM     43   O  SGN C   3      12.560  42.467  24.4040  0.00  0.00     0.000 O
ATOM     45  HD  SGN C   3      13.388  42.611  24.6140  0.00  0.00     0.000 HD
BRANCH 38 47
ATOM     45   N  SGN C   3      11.899  41.335  21.0380  0.00  0.00     0.000 N
ATOM     47  HD  SGN C   3      12.629  41.449  21.4890  0.00  0.00     0.000 HD
ATOM     47   S  SGN C   3      10.349  41.689  21.0480  0.00  0.00     0.000 S
ATOM     48   O  SGN C   3       9.736  41.297  22.2670  0.00  0.00     0.000 OA
ATOM     49   O  SGN C   3      10.242  43.065  20.6900  0.00  0.00     0.000 OA
ATOM     50   O  SGN C   3       9.838  40.817  19.9910  0.00  0.00     0.000 OA
ENDBRANCH 38 47
BRANCH 41 51
ATOM     51   C  SGN C   3      16.891  42.111  22.0410  0.00  0.00     0.000 C
ATOM     52   O  SGN C   3      18.190  38.686  22.7220  0.00  0.00     0.000 OA
ATOM     53   O  SGN C   3      19.011  40.355  21.2150  0.00  0.00     0.000 OA
ATOM     54   O  SGN C   3      19.041  40.735  23.5860  0.00  0.00     0.000 OA
ATOM     55   O  SGN C   3      16.938  40.725  22.3030  0.00  0.00     0.000 O
ATOM     56   S  SGN C   3      18.436  40.065  22.4730  0.00  0.00     0.000 S
ENDBRANCH 41 51
BRANCH 37 57
ATOM     57  O4  IDS C   4      13.565  43.694  20.4070  0.00  0.00     0.000 O
BRANCH 57 61
ATOM     58  C1  IDS C   4      13.216  46.643  18.0290  0.00  0.00     0.000 C
ATOM     59  C2  IDS C   4      12.028  45.763  18.2620  0.00  0.00     0.000 C
ATOM     60  C3  IDS C   4      12.397  44.280  18.3410  0.00  0.00     0.000 C
ATOM     61  C4  IDS C   4      13.729  43.943  18.9980  0.00  0.00     0.000 C
ATOM     62  C5  IDS C   4      14.752  45.058  18.7540  0.00  0.00     0.000 C
ATOM     63  O5  IDS C   4      14.201  46.343  19.0030  0.00  0.00     0.000 O
ATOM     64   O  IDS C   4      12.438  43.834  16.9980  0.00  0.00     0.000 O
ATOM     66  HD  IDS C   4      13.247  43.626  16.7720  0.00  0.00     0.000 HD
BRANCH 59 66
ATOM     66   O  IDS C   4      11.349  46.093  19.5290  0.00  0.00     0.000 O
ATOM     67   S  IDS C   4       9.836  46.575  19.4200  0.00  0.00     0.000 S
ATOM     68   O  IDS C   4       9.156  45.409  18.9080  0.00  0.00     0.000 OA
ATOM     69   O  IDS C   4       9.467  46.955  20.7690  0.00  0.00     0.000 OA
ATOM     70   O  IDS C   4       9.803  47.676  18.4690  0.00  0.00     0.000 OA
ENDBRANCH 59 66
BRANCH 62 71
ATOM     71   C  IDS C   4      15.970  44.954  19.6520  0.00  0.00     0.000 C
ATOM     72   O  IDS C   4      16.105  45.719  20.5880  0.00  0.00     0.000 OA
ATOM     73   O  IDS C   4      16.867  44.144  19.3450  0.00  0.00     0.000 OA
ENDBRANCH 62 71
BRANCH 58 74
ATOM     74  O4  SGN C   5      13.587  46.774  16.7240  0.00  0.00     0.000 O
BRANCH 74 78
ATOM     75  C1  SGN C   5      15.286  49.268  13.8360  0.00  0.00     0.000 C
ATOM     76  C2  SGN C   5      16.148  48.993  15.0830  0.00  0.00     0.000 C
ATOM     77  C3  SGN C   5      15.577  47.818  15.8890  0.00  0.00     0.000 C
ATOM     78  C4  SGN C   5      14.079  47.966  16.1120  0.00  0.00     0.000 C
ATOM     79  C5  SGN C   5      13.388  48.206  14.7770  0.00  0.00     0.000 C
ATOM     80  O5  SGN C   5      13.912  49.417  14.1700  0.00  0.00     0.000 O
ATOM     81   O  SGN C   5      16.262  47.736  17.1340  0.00  0.00     0.000 O
ATOM     83  HD  SGN C   5      17.109  47.906  17.1990  0.00  0.00     0.000 HD
BRANCH 76 85
ATOM     83   N  SGN C   5      17.431  48.766  14.4070  0.00  0.00     0.000 N
ATOM     85  HD  SGN C   5      18.297  48.774  14.3820  0.00  0.00     0.000 HD
ATOM     85   S  SGN C   5      18.767  49.666  14.4200  0.00  0.00     0.000 S
ATOM     86   O  SGN C   5      19.794  49.043  13.6590  0.00  0.00     0.000 OA
ATOM     87   O  SGN C   5      18.390  50.981  14.0420  0.00  0.00     0.000 OA
ATOM     88   O  SGN C   5      19.046  49.527  15.9150  0.00  0.00     0.000 OA
ENDBRANCH 76 85
BRANCH 79 89
ATOM     89   C  SGN C   5      11.884  48.343  14.8910  0.00  0.00     0.000 C
ATOM     90   O  SGN C   5      11.558  49.374  15.8550  0.00  0.00     0.000 O
ATOM     91   S  SGN C   5      10.207  50.202  15.5960  0.00  0.00     0.000 S
ATOM     92   O  SGN C   5      10.283  50.691  14.2440  0.00  0.00     0.000 OA
ATOM     93   O  SGN C   5       9.108  49.291  15.7920  0.00  0.00     0.000 OA
ATOM     94   O  SGN C   5      10.263  51.244  16.5850  0.00  0.00     0.000 OA
ENDBRANCH 79 89
BRANCH 75 95
ATOM     95  O4  BDP C   6      15.446  48.179  13.0260  0.00  0.00     0.000 O
BRANCH 95 99
ATOM     96  C1  BDP C   6      15.477  47.736   8.7540  0.00  0.00     0.000 C
ATOM     97  C2  BDP C   6      16.315  48.818   9.3730  0.00  0.00     0.000 C
ATOM     98  C3  BDP C   6      16.541  48.659  10.8840  0.00  0.00     0.000 C
ATOM     99  C4  BDP C   6      15.234  48.383  11.6120  0.00  0.00     0.000 C
ATOM    100  C5  BDP C   6      14.512  47.228  10.8780  0.00  0.00     0.000 C
ATOM    101  O5  BDP C   6      14.309  47.748   9.5540  0.00  0.00     0.000 O
BRANCH 100 102
ATOM    102   C  BDP C   6      13.160  46.919  11.4690  0.00  0.00     0.000 C
ATOM    103   O  BDP C   6      12.954  45.907  12.1550  0.00  0.00     0.000 OA
ATOM    104   O  BDP C   6      12.255  47.732  11.2490  0.00  0.00     0.000 OA
ENDBRANCH 100 102
ENDBRANCH 95 99
ENDBRANCH 75 95
ENDBRANCH 74 78
ENDBRANCH 58 74
ENDBRANCH 57 61
ENDBRANCH 37 57
ENDBRANCH 36 40
ENDBRANCH 23 36
ENDBRANCH 22 26
ENDBRANCH 1 22
TORSDOF 20
ENDMDL
MODEL 95
REMARK VINA RESULT:       0.2     10.608     20.374
ROOT
ATOM      1  C1  NGY C   1      28.926  22.598  45.5140  0.00  0.00     0.000 C
ATOM      2  C2  NGY C   1      30.338  22.393  44.9840  0.00  0.00     0.000 C
ATOM      3  C3  NGY C   1      30.879  21.039  45.4320  0.00  0.00     0.000 C
ATOM      4  C4  NGY C   1      30.768  20.959  46.9420  0.00  0.00     0.000 C
ATOM      5  C5  NGY C   1      29.300  21.096  47.3340  0.00  0.00     0.000 C
ATOM      6  O5  NGY C   1      28.837  22.405  46.9100  0.00  0.00     0.000 O
ATOM      7   O  NGY C   1      32.221  20.903  44.9870  0.00  0.00     0.000 O
ATOM      9  HD  NGY C   1      32.913  21.413  44.8840  0.00  0.00     0.000 HD
ATOM      9   O  NGY C   1      31.290  19.730  47.4260  0.00  0.00     0.000 O
ATOM     11  HD  NGY C   1      31.982  20.240  47.3230  0.00  0.00     0.000 HD
ENDROOT
BRANCH 2 13
ATOM     11   N  NGY C   1      30.352  22.468  43.5420  0.00  0.00     0.000 N
ATOM     13  HD  NGY C   1      31.004  23.030  43.4430  0.00  0.00     0.000 HD
ATOM     13   C  NGY C   1      31.220  23.242  42.8920  0.00  0.00     0.000 C
ATOM     14   O  NGY C   1      31.947  24.032  43.4970  0.00  0.00     0.000 OA
ATOM     15   C  NGY C   1      31.281  23.081  41.4030  0.00  0.00     0.000 C
ENDBRANCH 2 13
BRANCH 5 16
ATOM     16   C  NGY C   1      29.025  21.027  48.8020  0.00  0.00     0.000 C
ATOM     17   O  NGY C   1      29.724  23.758  51.1500  0.00  0.00     0.000 OA
ATOM     18   O  NGY C   1      29.614  22.166  49.4350  0.00  0.00     0.000 O
ATOM     19   S  NGY C   1      29.067  22.507  50.8680  0.00  0.00     0.000 S
ATOM     20   O  NGY C   1      29.494  21.452  51.7480  0.00  0.00     0.000 OA
ATOM     21   O  NGY C   1      27.624  22.576  50.7020  0.00  0.00     0.000 OA
ENDBRANCH 5 16
BRANCH 1 22
ATOM     22  O4  BDP C   2      28.082  21.801  44.8240  0.00  0.00     0.000 O
BRANCH 22 26
ATOM     23  C1  BDP C   2      24.403  21.030  43.1410  0.00  0.00     0.000 C
ATOM     24  C2  BDP C   2      25.087  22.288  42.6600  0.00  0.00     0.000 C
ATOM     25  C3  BDP C   2      26.539  22.258  43.0600  0.00  0.00     0.000 C
ATOM     26  C4  BDP C   2      26.669  22.004  44.5580  0.00  0.00     0.000 C
ATOM     27  C5  BDP C   2      25.800  20.819  44.9590  0.00  0.00     0.000 C
ATOM     28  O5  BDP C   2      24.407  20.999  44.5960  0.00  0.00     0.000 O
ATOM     29   O  BDP C   2      25.132  22.372  41.2350  0.00  0.00     0.000 O
ATOM     31  HD  BDP C   2      25.842  22.729  40.8910  0.00  0.00     0.000 HD
ATOM     31   O  BDP C   2      27.084  23.530  42.7310  0.00  0.00     0.000 O
ATOM     33  HD  BDP C   2      27.794  23.887  42.3860  0.00  0.00     0.000 HD
BRANCH 27 33
ATOM     33   C  BDP C   2      25.808  20.575  46.4490  0.00  0.00     0.000 C
ATOM     34   O  BDP C   2      25.507  21.473  47.2720  0.00  0.00     0.000 OA
ATOM     35   O  BDP C   2      26.153  19.478  46.8550  0.00  0.00     0.000 OA
ENDBRANCH 27 33
BRANCH 23 36
ATOM     36  O4  SGN C   3      23.123  20.874  42.7320  0.00  0.00     0.000 O
BRANCH 36 40
ATOM     37  C1  SGN C   3      20.321  18.187  41.1970  0.00  0.00     0.000 C
ATOM     38  C2  SGN C   3      20.513  18.225  42.7210  0.00  0.00     0.000 C
ATOM     39  C3  SGN C   3      21.209  19.512  43.1380  0.00  0.00     0.000 C
ATOM     40  C4  SGN C   3      22.519  19.624  42.3880  0.00  0.00     0.000 C
ATOM     41  C5  SGN C   3      22.238  19.554  40.9030  0.00  0.00     0.000 C
ATOM     42  O5  SGN C   3      21.597  18.308  40.5890  0.00  0.00     0.000 O
ATOM     43   O  SGN C   3      21.426  19.494  44.5440  0.00  0.00     0.000 O
ATOM     45  HD  SGN C   3      22.027  19.985  44.1580  0.00  0.00     0.000 HD
BRANCH 38 47
ATOM     45   N  SGN C   3      20.187  17.095  43.6100  0.00  0.00     0.000 N
ATOM     47  HD  SGN C   3      20.738  17.726  43.3890  0.00  0.00     0.000 HD
ATOM     47   S  SGN C   3      18.662  16.662  43.4910  0.00  0.00     0.000 S
ATOM     48   O  SGN C   3      17.796  17.679  43.9730  0.00  0.00     0.000 OA
ATOM     49   O  SGN C   3      18.462  16.235  42.1450  0.00  0.00     0.000 OA
ATOM     50   O  SGN C   3      18.598  15.542  44.4270  0.00  0.00     0.000 OA
ENDBRANCH 38 47
BRANCH 41 51
ATOM     51   C  SGN C   3      23.466  19.659  40.0400  0.00  0.00     0.000 C
ATOM     52   O  SGN C   3      26.614  17.692  40.3460  0.00  0.00     0.000 OA
ATOM     53   O  SGN C   3      25.529  18.535  38.3860  0.00  0.00     0.000 OA
ATOM     54   O  SGN C   3      26.424  20.044  40.0250  0.00  0.00     0.000 OA
ATOM     55   O  SGN C   3      24.407  18.700  40.4670  0.00  0.00     0.000 O
ATOM     56   S  SGN C   3      25.881  18.749  39.7380  0.00  0.00     0.000 S
ENDBRANCH 41 51
BRANCH 37 57
ATOM     57  O4  IDS C   4      19.521  19.164  40.7020  0.00  0.00     0.000 O
BRANCH 57 61
ATOM     58  C1  IDS C   4      16.328  19.565  38.6740  0.00  0.00     0.000 C
ATOM     59  C2  IDS C   4      16.621  18.237  39.2970  0.00  0.00     0.000 C
ATOM     60  C3  IDS C   4      18.100  17.854  39.2060  0.00  0.00     0.000 C
ATOM     61  C4  IDS C   4      19.107  18.988  39.3340  0.00  0.00     0.000 C
ATOM     62  C5  IDS C   4      18.533  20.291  38.7640  0.00  0.00     0.000 C
ATOM     63  O5  IDS C   4      17.211  20.529  39.2220  0.00  0.00     0.000 O
ATOM     64   O  IDS C   4      18.253  17.264  37.9290  0.00  0.00     0.000 O
ATOM     66  HD  IDS C   4      18.750  17.761  37.4230  0.00  0.00     0.000 HD
BRANCH 59 66
ATOM     66   O  IDS C   4      16.273  18.223  40.7310  0.00  0.00     0.000 O
ATOM     67   S  IDS C   4      15.022  17.333  41.1500  0.00  0.00     0.000 S
ATOM     68   O  IDS C   4      15.456  15.991  40.8440  0.00  0.00     0.000 OA
ATOM     69   O  IDS C   4      14.826  17.605  42.5600  0.00  0.00     0.000 OA
ATOM     70   O  IDS C   4      13.905  17.740  40.3120  0.00  0.00     0.000 OA
ENDBRANCH 59 66
BRANCH 62 71
ATOM     71   C  IDS C   4      19.332  21.517  39.1630  0.00  0.00     0.000 C
ATOM     72   O  IDS C   4      20.439  21.703  38.6950  0.00  0.00     0.000 OA
ATOM     73   O  IDS C   4      18.872  22.262  40.0500  0.00  0.00     0.000 OA
ENDBRANCH 62 71
BRANCH 58 74
ATOM     74  O4  SGN C   5      16.128  19.536  37.3250  0.00  0.00     0.000 O
BRANCH 74 78
ATOM     75  C1  SGN C   5      13.639  22.732  36.3120  0.00  0.00     0.000 C
ATOM     76  C2  SGN C   5      12.937  21.480  36.8700  0.00  0.00     0.000 C
ATOM     77  C3  SGN C   5      13.955  20.530  37.5150  0.00  0.00     0.000 C
ATOM     78  C4  SGN C   5      15.155  20.295  36.6080  0.00  0.00     0.000 C
ATOM     79  C5  SGN C   5      15.734  21.634  36.1750  0.00  0.00     0.000 C
ATOM     80  O5  SGN C   5      14.722  22.390  35.4580  0.00  0.00     0.000 O
ATOM     81   O  SGN C   5      13.309  19.298  37.8190  0.00  0.00     0.000 O
ATOM     83  HD  SGN C   5      12.489  19.271  38.0970  0.00  0.00     0.000 HD
BRANCH 76 85
ATOM     83   N  SGN C   5      11.952  21.911  37.8700  0.00  0.00     0.000 N
ATOM     85  HD  SGN C   5      11.160  21.900  38.2210  0.00  0.00     0.000 HD
ATOM     85   S  SGN C   5      10.393  22.272  37.6810  0.00  0.00     0.000 S
ATOM     86   O  SGN C   5       9.804  22.600  38.9320  0.00  0.00     0.000 OA
ATOM     87   O  SGN C   5      10.311  23.248  36.6530  0.00  0.00     0.000 OA
ATOM     88   O  SGN C   5       9.955  20.882  37.2270  0.00  0.00     0.000 OA
ENDBRANCH 76 85
BRANCH 79 89
ATOM     89   C  SGN C   5      16.953  21.505  35.2850  0.00  0.00     0.000 C
ATOM     90   O  SGN C   5      16.549  21.083  33.9590  0.00  0.00     0.000 O
ATOM     91   S  SGN C   5      17.444  21.603  32.7330  0.00  0.00     0.000 S
ATOM     92   O  SGN C   5      17.532  23.034  32.8720  0.00  0.00     0.000 OA
ATOM     93   O  SGN C   5      18.728  20.960  32.8430  0.00  0.00     0.000 OA
ATOM     94   O  SGN C   5      16.697  21.186  31.5780  0.00  0.00     0.000 OA
ENDBRANCH 79 89
BRANCH 75 95
ATOM     95  O4  BDP C   6      14.109  23.412  37.4000  0.00  0.00     0.000 O
BRANCH 95 99
ATOM     96  C1  BDP C   6      14.163  27.687  37.8060  0.00  0.00     0.000 C
ATOM     97  C2  BDP C   6      13.459  27.084  36.6240  0.00  0.00     0.000 C
ATOM     98  C3  BDP C   6      13.163  25.583  36.7610  0.00  0.00     0.000 C
ATOM     99  C4  BDP C   6      14.395  24.815  37.2180  0.00  0.00     0.000 C
ATOM    100  C5  BDP C   6      14.977  25.539  38.4550  0.00  0.00     0.000 C
ATOM    101  O5  BDP C   6      15.294  26.850  37.9600  0.00  0.00     0.000 O
BRANCH 100 102
ATOM    102   C  BDP C   6      16.253  24.908  38.9510  0.00  0.00     0.000 C
ATOM    103   O  BDP C   6      16.257  23.892  39.6600  0.00  0.00     0.000 OA
ATOM    104   O  BDP C   6      17.312  25.445  38.6060  0.00  0.00     0.000 OA
ENDBRANCH 100 102
ENDBRANCH 95 99
ENDBRANCH 75 95
ENDBRANCH 74 78
ENDBRANCH 58 74
ENDBRANCH 57 61
ENDBRANCH 37 57
ENDBRANCH 36 40
ENDBRANCH 23 36
ENDBRANCH 22 26
ENDBRANCH 1 22
TORSDOF 20
ENDMDL
MODEL 96
REMARK VINA RESULT:       0.3     28.867     40.635
ROOT
ATOM      1  C1  NGY C   1      36.874   9.471  67.8860  0.00  0.00     0.000 C
ATOM      2  C2  NGY C   1      38.216  10.105  68.2200  0.00  0.00     0.000 C
ATOM      3  C3  NGY C   1      39.259   9.025  68.4920  0.00  0.00     0.000 C
ATOM      4  C4  NGY C   1      38.722   8.108  69.5740  0.00  0.00     0.000 C
ATOM      5  C5  NGY C   1      37.423   7.476  69.0810  0.00  0.00     0.000 C
ATOM      6  O5  NGY C   1      36.458   8.536  68.8590  0.00  0.00     0.000 O
ATOM      7   O  NGY C   1      40.481   9.641  68.8720  0.00  0.00     0.000 O
ATOM      9  HD  NGY C   1      40.731  10.332  69.3300  0.00  0.00     0.000 HD
ATOM      9   O  NGY C   1      39.665   7.096  69.8960  0.00  0.00     0.000 O
ATOM     11  HD  NGY C   1      39.915   7.787  70.3540  0.00  0.00     0.000 HD
ENDROOT
BRANCH 2 13
ATOM     11   N  NGY C   1      38.033  11.429  67.6740  0.00  0.00     0.000 N
ATOM     13  HD  NGY C   1      38.864  11.649  67.5720  0.00  0.00     0.000 HD
ATOM     13   C  NGY C   1      39.070  12.199  67.3450  0.00  0.00     0.000 C
ATOM     14   O  NGY C   1      40.223  11.868  67.6270  0.00  0.00     0.000 OA
ATOM     15   C  NGY C   1      38.761  13.460  66.5970  0.00  0.00     0.000 C
ENDBRANCH 2 13
BRANCH 5 16
ATOM     16   C  NGY C   1      36.772   6.531  70.0390  0.00  0.00     0.000 C
ATOM     17   O  NGY C   1      33.440   5.079  69.5430  0.00  0.00     0.000 OA
ATOM     18   O  NGY C   1      35.411   6.340  69.6450  0.00  0.00     0.000 O
ATOM     19   S  NGY C   1      34.703   5.070  70.2380  0.00  0.00     0.000 S
ATOM     20   O  NGY C   1      34.551   5.288  71.6520  0.00  0.00     0.000 OA
ATOM     21   O  NGY C   1      35.594   3.968  69.9130  0.00  0.00     0.000 OA
ENDBRANCH 5 16
BRANCH 1 22
ATOM     22  O4  BDP C   2      36.942   8.936  66.6490  0.00  0.00     0.000 O
BRANCH 22 26
ATOM     23  C1  BDP C   2      35.260   8.442  62.9220  0.00  0.00     0.000 C
ATOM     24  C2  BDP C   2      35.006   9.779  63.5770  0.00  0.00     0.000 C
ATOM     25  C3  BDP C   2      35.955   9.964  64.7320  0.00  0.00     0.000 C
ATOM     26  C4  BDP C   2      35.873   8.772  65.6800  0.00  0.00     0.000 C
ATOM     27  C5  BDP C   2      35.966   7.474  64.8870  0.00  0.00     0.000 C
ATOM     28  O5  BDP C   2      34.949   7.372  63.8580  0.00  0.00     0.000 O
ATOM     29   O  BDP C   2      35.308  10.875  62.7140  0.00  0.00     0.000 O
ATOM     31  HD  BDP C   2      35.646  11.580  63.0870  0.00  0.00     0.000 HD
ATOM     31   O  BDP C   2      35.559  11.152  65.4070  0.00  0.00     0.000 O
ATOM     33  HD  BDP C   2      35.897  11.857  65.7800  0.00  0.00     0.000 HD
BRANCH 27 33
ATOM     33   C  BDP C   2      35.794   6.252  65.7570  0.00  0.00     0.000 C
ATOM     34   O  BDP C   2      34.669   5.737  65.9650  0.00  0.00     0.000 OA
ATOM     35   O  BDP C   2      36.781   5.780  66.2960  0.00  0.00     0.000 OA
ENDBRANCH 27 33
BRANCH 23 36
ATOM     36  O4  SGN C   3      34.558   8.211  61.7880  0.00  0.00     0.000 O
BRANCH 36 40
ATOM     37  C1  SGN C   3      34.671   6.294  58.0810  0.00  0.00     0.000 C
ATOM     38  C2  SGN C   3      33.968   5.568  59.2390  0.00  0.00     0.000 C
ATOM     39  C3  SGN C   3      33.632   6.546  60.3550  0.00  0.00     0.000 C
ATOM     40  C4  SGN C   3      34.903   7.241  60.7950  0.00  0.00     0.000 C
ATOM     41  C5  SGN C   3      35.536   7.905  59.5930  0.00  0.00     0.000 C
ATOM     42  O5  SGN C   3      35.837   6.918  58.5940  0.00  0.00     0.000 O
ATOM     43   O  SGN C   3      33.038   5.838  61.4360  0.00  0.00     0.000 O
ATOM     45  HD  SGN C   3      33.438   6.547  61.7320  0.00  0.00     0.000 HD
BRANCH 38 47
ATOM     45   N  SGN C   3      33.729   4.116  59.3250  0.00  0.00     0.000 N
ATOM     47  HD  SGN C   3      33.943   4.854  59.7240  0.00  0.00     0.000 HD
ATOM     47   S  SGN C   3      32.985   3.556  58.0370  0.00  0.00     0.000 S
ATOM     48   O  SGN C   3      31.665   4.070  57.9370  0.00  0.00     0.000 OA
ATOM     49   O  SGN C   3      33.851   3.794  56.9290  0.00  0.00     0.000 OA
ATOM     50   O  SGN C   3      32.886   2.131  58.3470  0.00  0.00     0.000 OA
ENDBRANCH 38 47
BRANCH 41 51
ATOM     51   C  SGN C   3      36.813   8.640  59.8980  0.00  0.00     0.000 C
ATOM     52   O  SGN C   3      37.288  12.326  60.1550  0.00  0.00     0.000 OA
ATOM     53   O  SGN C   3      38.366  10.563  61.3630  0.00  0.00     0.000 OA
ATOM     54   O  SGN C   3      38.681  10.783  58.9930  0.00  0.00     0.000 OA
ATOM     55   O  SGN C   3      36.542  10.023  59.9500  0.00  0.00     0.000 O
ATOM     56   S  SGN C   3      37.842  11.016  60.1310  0.00  0.00     0.000 S
ENDBRANCH 41 51
BRANCH 37 57
ATOM     57  O4  IDS C   4      33.919   7.241  57.4680  0.00  0.00     0.000 O
BRANCH 57 61
ATOM     58  C1  IDS C   4      32.150   8.826  54.4960  0.00  0.00     0.000 C
ATOM     59  C2  IDS C   4      31.870   7.392  54.8170  0.00  0.00     0.000 C
ATOM     60  C3  IDS C   4      33.125   6.624  55.2390  0.00  0.00     0.000 C
ATOM     61  C4  IDS C   4      34.153   7.395  56.0550  0.00  0.00     0.000 C
ATOM     62  C5  IDS C   4      34.160   8.877  55.6590  0.00  0.00     0.000 C
ATOM     63  O5  IDS C   4      32.845   9.408  55.5850  0.00  0.00     0.000 O
ATOM     64   O  IDS C   4      33.734   6.212  54.0300  0.00  0.00     0.000 O
ATOM     66  HD  IDS C   4      34.490   6.618  53.9170  0.00  0.00     0.000 HD
BRANCH 59 66
ATOM     66   O  IDS C   4      30.908   7.263  55.9270  0.00  0.00     0.000 O
ATOM     67   S  IDS C   4      29.487   6.643  55.5680  0.00  0.00     0.000 S
ATOM     68   O  IDS C   4      29.808   5.292  55.1750  0.00  0.00     0.000 OA
ATOM     69   O  IDS C   4      28.711   6.757  56.7870  0.00  0.00     0.000 OA
ATOM     70   O  IDS C   4      28.951   7.412  54.4550  0.00  0.00     0.000 OA
ENDBRANCH 59 66
BRANCH 62 71
ATOM     71   C  IDS C   4      34.900   9.753  56.6510  0.00  0.00     0.000 C
ATOM     72   O  IDS C   4      34.280  10.468  57.4150  0.00  0.00     0.000 OA
ATOM     73   O  IDS C   4      36.145   9.798  56.5910  0.00  0.00     0.000 OA
ENDBRANCH 62 71
BRANCH 58 74
ATOM     74  O4  SGN C   5      32.590   9.055  53.2250  0.00  0.00     0.000 O
BRANCH 74 78
ATOM     75  C1  SGN C   5      32.927  11.895  50.1810  0.00  0.00     0.000 C
ATOM     76  C2  SGN C   5      34.173  11.703  51.0680  0.00  0.00     0.000 C
ATOM     77  C3  SGN C   5      34.051  10.423  51.9050  0.00  0.00     0.000 C
ATOM     78  C4  SGN C   5      32.697  10.332  52.5970  0.00  0.00     0.000 C
ATOM     79  C5  SGN C   5      31.589  10.519  51.5710  0.00  0.00     0.000 C
ATOM     80  O5  SGN C   5      31.727  11.819  50.9390  0.00  0.00     0.000 O
ATOM     81   O  SGN C   5      35.104  10.394  52.8620  0.00  0.00     0.000 O
ATOM     83  HD  SGN C   5      35.897  10.688  52.6730  0.00  0.00     0.000 HD
BRANCH 76 85
ATOM     83   N  SGN C   5      35.509  12.305  50.9790  0.00  0.00     0.000 N
ATOM     85  HD  SGN C   5      36.073  12.876  50.6540  0.00  0.00     0.000 HD
ATOM     85   S  SGN C   5      36.327  12.793  49.6810  0.00  0.00     0.000 S
ATOM     86   O  SGN C   5      37.573  13.361  50.0630  0.00  0.00     0.000 OA
ATOM     87   O  SGN C   5      36.366  11.701  48.7750  0.00  0.00     0.000 OA
ATOM     88   O  SGN C   5      35.344  13.884  49.2650  0.00  0.00     0.000 OA
ENDBRANCH 76 85
BRANCH 79 89
ATOM     89   C  SGN C   5      30.197  10.421  52.1610  0.00  0.00     0.000 C
ATOM     90   O  SGN C   5      29.209  10.626  51.1220  0.00  0.00     0.000 O
ATOM     91   S  SGN C   5      27.814   9.849  51.2900  0.00  0.00     0.000 S
ATOM     92   O  SGN C   5      28.144   8.463  51.4970  0.00  0.00     0.000 OA
ATOM     93   O  SGN C   5      27.141  10.429  52.4230  0.00  0.00     0.000 OA
ATOM     94   O  SGN C   5      27.145  10.098  50.0430  0.00  0.00     0.000 OA
ENDBRANCH 79 89
BRANCH 75 95
ATOM     95  O4  BDP C   6      32.959  10.878  49.2700  0.00  0.00     0.000 O
BRANCH 95 99
ATOM     96  C1  BDP C   6      31.640  10.689  45.1870  0.00  0.00     0.000 C
ATOM     97  C2  BDP C   6      32.318  11.940  45.6690  0.00  0.00     0.000 C
ATOM     98  C3  BDP C   6      33.083  11.777  46.9910  0.00  0.00     0.000 C
ATOM     99  C4  BDP C   6      32.229  11.081  48.0410  0.00  0.00     0.000 C
ATOM    100  C5  BDP C   6      31.636   9.803  47.4030  0.00  0.00     0.000 C
ATOM    101  O5  BDP C   6      30.859  10.305  46.3030  0.00  0.00     0.000 O
BRANCH 100 102
ATOM    102   C  BDP C   6      30.703   9.068  48.3320  0.00  0.00     0.000 C
ATOM    103   O  BDP C   6      31.117   8.381  49.2770  0.00  0.00     0.000 OA
ATOM    104   O  BDP C   6      29.491   9.190  48.1200  0.00  0.00     0.000 OA
ENDBRANCH 100 102
ENDBRANCH 95 99
ENDBRANCH 75 95
ENDBRANCH 74 78
ENDBRANCH 58 74
ENDBRANCH 57 61
ENDBRANCH 37 57
ENDBRANCH 36 40
ENDBRANCH 23 36
ENDBRANCH 22 26
ENDBRANCH 1 22
TORSDOF 20
ENDMDL
MODEL 97
REMARK VINA RESULT:       0.3     13.595     19.583
ROOT
ATOM      1  C1  NGY C   1      11.219  48.627  33.0210  0.00  0.00     0.000 C
ATOM      2  C2  NGY C   1      10.124  49.570  32.5420  0.00  0.00     0.000 C
ATOM      3  C3  NGY C   1      10.729  50.723  31.7480  0.00  0.00     0.000 C
ATOM      4  C4  NGY C   1      11.787  51.389  32.6070  0.00  0.00     0.000 C
ATOM      5  C5  NGY C   1      12.861  50.360  32.9470  0.00  0.00     0.000 C
ATOM      6  O5  NGY C   1      12.245  49.298  33.7210  0.00  0.00     0.000 O
ATOM      7   O  NGY C   1       9.698  51.625  31.3750  0.00  0.00     0.000 O
ATOM      9  HD  NGY C   1       8.966  51.934  31.7200  0.00  0.00     0.000 HD
ATOM      9   O  NGY C   1      12.366  52.496  31.9330  0.00  0.00     0.000 O
ATOM     11  HD  NGY C   1      11.634  52.805  32.2780  0.00  0.00     0.000 HD
ENDROOT
BRANCH 2 13
ATOM     11   N  NGY C   1       8.742  49.890  32.2710  0.00  0.00     0.000 N
ATOM     13  HD  NGY C   1       8.451  49.093  32.0970  0.00  0.00     0.000 HD
ATOM     13   C  NGY C   1       7.859  48.948  31.9400  0.00  0.00     0.000 C
ATOM     14   O  NGY C   1       8.218  47.792  31.7110  0.00  0.00     0.000 OA
ATOM     15   C  NGY C   1       6.421  49.363  31.8880  0.00  0.00     0.000 C
ENDBRANCH 2 13
BRANCH 5 16
ATOM     16   C  NGY C   1      13.987  50.871  33.7890  0.00  0.00     0.000 C
ATOM     17   O  NGY C   1      17.530  50.256  33.0650  0.00  0.00     0.000 OA
ATOM     18   O  NGY C   1      15.205  50.268  33.3430  0.00  0.00     0.000 O
ATOM     19   S  NGY C   1      16.525  50.995  33.7860  0.00  0.00     0.000 S
ATOM     20   O  NGY C   1      16.642  50.832  35.2120  0.00  0.00     0.000 OA
ATOM     21   O  NGY C   1      16.339  52.376  33.3730  0.00  0.00     0.000 OA
ENDBRANCH 5 16
BRANCH 1 22
ATOM     22  O4  BDP C   2      11.682  47.927  31.9640  0.00  0.00     0.000 O
BRANCH 22 26
ATOM     23  C1  BDP C   2      13.224  44.407  30.4810  0.00  0.00     0.000 C
ATOM     24  C2  BDP C   2      12.265  44.260  31.6380  0.00  0.00     0.000 C
ATOM     25  C3  BDP C   2      11.510  45.548  31.8370  0.00  0.00     0.000 C
ATOM     26  C4  BDP C   2      12.483  46.715  31.9690  0.00  0.00     0.000 C
ATOM     27  C5  BDP C   2      13.510  46.662  30.8460  0.00  0.00     0.000 C
ATOM     28  O5  BDP C   2      14.233  45.405  30.8060  0.00  0.00     0.000 O
ATOM     29   O  BDP C   2      11.237  43.305  31.3750  0.00  0.00     0.000 O
ATOM     31  HD  BDP C   2      10.453  43.480  31.6990  0.00  0.00     0.000 HD
ATOM     31   O  BDP C   2      10.754  45.404  33.0330  0.00  0.00     0.000 O
ATOM     33  HD  BDP C   2       9.970  45.579  33.3570  0.00  0.00     0.000 HD
BRANCH 27 33
ATOM     33   C  BDP C   2      14.563  47.737  30.9750  0.00  0.00     0.000 C
ATOM     34   O  BDP C   2      14.487  48.822  30.3510  0.00  0.00     0.000 OA
ATOM     35   O  BDP C   2      15.531  47.518  31.6840  0.00  0.00     0.000 OA
ENDBRANCH 27 33
BRANCH 23 36
ATOM     36  O4  SGN C   3      13.870  43.276  30.1160  0.00  0.00     0.000 O
BRANCH 36 40
ATOM     37  C1  SGN C   3      16.550  41.588  27.3950  0.00  0.00     0.000 C
ATOM     38  C2  SGN C   3      17.135  42.291  28.6310  0.00  0.00     0.000 C
ATOM     39  C3  SGN C   3      16.070  42.453  29.7060  0.00  0.00     0.000 C
ATOM     40  C4  SGN C   3      14.892  43.201  29.1180  0.00  0.00     0.000 C
ATOM     41  C5  SGN C   3      14.398  42.454  27.8990  0.00  0.00     0.000 C
ATOM     42  O5  SGN C   3      15.452  42.357  26.9290  0.00  0.00     0.000 O
ATOM     43   O  SGN C   3      16.622  43.157  30.8110  0.00  0.00     0.000 O
ATOM     45  HD  SGN C   3      15.767  43.293  30.7710  0.00  0.00     0.000 HD
BRANCH 38 47
ATOM     45   N  SGN C   3      18.171  41.277  28.8940  0.00  0.00     0.000 N
ATOM     47  HD  SGN C   3      17.330  41.478  28.8440  0.00  0.00     0.000 HD
ATOM     47   S  SGN C   3      19.604  41.742  28.3890  0.00  0.00     0.000 S
ATOM     48   O  SGN C   3      19.645  41.851  26.9730  0.00  0.00     0.000 OA
ATOM     49   O  SGN C   3      19.938  42.914  29.1310  0.00  0.00     0.000 OA
ATOM     50   O  SGN C   3      20.438  40.605  28.7730  0.00  0.00     0.000 OA
ENDBRANCH 38 47
BRANCH 41 51
ATOM     51   C  SGN C   3      13.219  43.095  27.2200  0.00  0.00     0.000 C
ATOM     52   O  SGN C   3      12.979  44.180  23.6640  0.00  0.00     0.000 OA
ATOM     53   O  SGN C   3      11.285  43.291  25.1040  0.00  0.00     0.000 OA
ATOM     54   O  SGN C   3      12.299  45.414  25.5840  0.00  0.00     0.000 OA
ATOM     55   O  SGN C   3      13.531  43.299  25.8600  0.00  0.00     0.000 O
ATOM     56   S  SGN C   3      12.419  44.124  24.9720  0.00  0.00     0.000 S
ENDBRANCH 41 51
BRANCH 37 57
ATOM     57  O4  IDS C   4      16.117  40.323  27.6170  0.00  0.00     0.000 O
BRANCH 57 61
ATOM     58  C1  IDS C   4      16.379  36.593  26.9170  0.00  0.00     0.000 C
ATOM     59  C2  IDS C   4      17.633  37.406  26.9540  0.00  0.00     0.000 C
ATOM     60  C3  IDS C   4      17.470  38.777  26.2920  0.00  0.00     0.000 C
ATOM     61  C4  IDS C   4      16.120  39.459  26.4630  0.00  0.00     0.000 C
ATOM     62  C5  IDS C   4      14.994  38.422  26.5520  0.00  0.00     0.000 C
ATOM     63  O5  IDS C   4      15.318  37.369  27.4480  0.00  0.00     0.000 O
ATOM     64   O  IDS C   4      17.683  38.551  24.9110  0.00  0.00     0.000 O
ATOM     66  HD  IDS C   4      16.951  38.679  24.4670  0.00  0.00     0.000 HD
BRANCH 59 66
ATOM     66   O  IDS C   4      18.074  37.661  28.3390  0.00  0.00     0.000 O
ATOM     67   S  IDS C   4      19.366  36.873  28.8300  0.00  0.00     0.000 S
ATOM     68   O  IDS C   4      20.413  37.401  27.9880  0.00  0.00     0.000 OA
ATOM     69   O  IDS C   4      19.491  37.199  30.2370  0.00  0.00     0.000 OA
ATOM     70   O  IDS C   4      19.133  35.460  28.5720  0.00  0.00     0.000 OA
ENDBRANCH 59 66
BRANCH 62 71
ATOM     71   C  IDS C   4      13.689  39.004  27.0600  0.00  0.00     0.000 C
ATOM     72   O  IDS C   4      13.327  38.788  28.2000  0.00  0.00     0.000 OA
ATOM     73   O  IDS C   4      12.957  39.613  26.2540  0.00  0.00     0.000 OA
ENDBRANCH 62 71
BRANCH 58 74
ATOM     74  O4  SGN C   5      16.181  35.894  25.7630  0.00  0.00     0.000 O
BRANCH 74 78
ATOM     75  C1  SGN C   5      14.663  32.415  24.0210  0.00  0.00     0.000 C
ATOM     76  C2  SGN C   5      13.628  33.500  24.3740  0.00  0.00     0.000 C
ATOM     77  C3  SGN C   5      14.324  34.834  24.6770  0.00  0.00     0.000 C
ATOM     78  C4  SGN C   5      15.484  34.653  25.6460  0.00  0.00     0.000 C
ATOM     79  C5  SGN C   5      16.413  33.565  25.1290  0.00  0.00     0.000 C
ATOM     80  O5  SGN C   5      15.680  32.317  25.0100  0.00  0.00     0.000 O
ATOM     81   O  SGN C   5      13.366  35.744  25.2080  0.00  0.00     0.000 O
ATOM     83  HD  SGN C   5      12.550  35.763  24.9210  0.00  0.00     0.000 HD
BRANCH 76 85
ATOM     83   N  SGN C   5      12.260  33.775  23.9180  0.00  0.00     0.000 N
ATOM     85  HD  SGN C   5      11.453  33.528  23.7210  0.00  0.00     0.000 HD
ATOM     85   S  SGN C   5      11.321  32.919  22.9270  0.00  0.00     0.000 S
ATOM     86   O  SGN C   5      10.046  33.535  22.7960  0.00  0.00     0.000 OA
ATOM     87   O  SGN C   5      12.059  32.701  21.7350  0.00  0.00     0.000 OA
ATOM     88   O  SGN C   5      11.231  31.680  23.8140  0.00  0.00     0.000 OA
ENDBRANCH 76 85
BRANCH 79 89
ATOM     89   C  SGN C   5      17.618  33.327  26.0160  0.00  0.00     0.000 C
ATOM     90   O  SGN C   5      17.581  31.976  26.5400  0.00  0.00     0.000 O
ATOM     91   S  SGN C   5      18.996  31.270  26.8140  0.00  0.00     0.000 S
ATOM     92   O  SGN C   5      19.751  31.387  25.5940  0.00  0.00     0.000 OA
ATOM     93   O  SGN C   5      19.612  31.970  27.9120  0.00  0.00     0.000 OA
ATOM     94   O  SGN C   5      18.633  29.917  27.1360  0.00  0.00     0.000 OA
ENDBRANCH 79 89
BRANCH 75 95
ATOM     95  O4  BDP C   6      15.214  32.799  22.8320  0.00  0.00     0.000 O
BRANCH 95 99
ATOM     96  C1  BDP C   6      16.931  30.400  19.7100  0.00  0.00     0.000 C
ATOM     97  C2  BDP C   6      15.853  29.802  20.5690  0.00  0.00     0.000 C
ATOM     98  C3  BDP C   6      15.048  30.828  21.3810  0.00  0.00     0.000 C
ATOM     99  C4  BDP C   6      15.966  31.800  22.1090  0.00  0.00     0.000 C
ATOM    100  C5  BDP C   6      16.987  32.349  21.0860  0.00  0.00     0.000 C
ATOM    101  O5  BDP C   6      17.676  31.173  20.6330  0.00  0.00     0.000 O
BRANCH 100 102
ATOM    102   C  BDP C   6      18.003  33.269  21.7160  0.00  0.00     0.000 C
ATOM    103   O  BDP C   6      18.154  34.442  21.3440  0.00  0.00     0.000 OA
ATOM    104   O  BDP C   6      18.681  32.804  22.6400  0.00  0.00     0.000 OA
ENDBRANCH 100 102
ENDBRANCH 95 99
ENDBRANCH 75 95
ENDBRANCH 74 78
ENDBRANCH 58 74
ENDBRANCH 57 61
ENDBRANCH 37 57
ENDBRANCH 36 40
ENDBRANCH 23 36
ENDBRANCH 22 26
ENDBRANCH 1 22
TORSDOF 20
ENDMDL
MODEL 98
REMARK VINA RESULT:       0.9      9.075     11.427
ROOT
ATOM      1  C1  NGY C   1      21.410  42.275  31.7260  0.00  0.00     0.000 C
ATOM      2  C2  NGY C   1      20.908  43.223  32.8060  0.00  0.00     0.000 C
ATOM      3  C3  NGY C   1      19.528  43.760  32.4380  0.00  0.00     0.000 C
ATOM      4  C4  NGY C   1      19.613  44.383  31.0570  0.00  0.00     0.000 C
ATOM      5  C5  NGY C   1      20.045  43.311  30.0610  0.00  0.00     0.000 C
ATOM      6  O5  NGY C   1      21.369  42.849  30.4370  0.00  0.00     0.000 O
ATOM      7   O  NGY C   1      19.113  44.696  33.4220  0.00  0.00     0.000 O
ATOM      9  HD  NGY C   1      19.480  45.305  33.9170  0.00  0.00     0.000 HD
ATOM      9   O  NGY C   1      18.362  44.933  30.6700  0.00  0.00     0.000 O
ATOM     11  HD  NGY C   1      18.728  45.542  31.1650  0.00  0.00     0.000 HD
ENDROOT
BRANCH 2 13
ATOM     11   N  NGY C   1      21.774  43.403  33.9470  0.00  0.00     0.000 N
ATOM     13  HD  NGY C   1      21.245  43.105  34.5650  0.00  0.00     0.000 HD
ATOM     13   C  NGY C   1      21.384  43.076  35.1780  0.00  0.00     0.000 C
ATOM     14   O  NGY C   1      20.221  42.742  35.4100  0.00  0.00     0.000 OA
ATOM     15   C  NGY C   1      22.433  43.108  36.2470  0.00  0.00     0.000 C
ENDBRANCH 2 13
BRANCH 5 16
ATOM     16   C  NGY C   1      20.166  43.772  28.6440  0.00  0.00     0.000 C
ATOM     17   O  NGY C   1      20.861  41.542  25.8150  0.00  0.00     0.000 OA
ATOM     18   O  NGY C   1      20.650  42.688  27.8470  0.00  0.00     0.000 O
ATOM     19   S  NGY C   1      20.421  42.826  26.2990  0.00  0.00     0.000 S
ATOM     20   O  NGY C   1      21.260  43.902  25.8400  0.00  0.00     0.000 OA
ATOM     21   O  NGY C   1      19.000  43.099  26.1620  0.00  0.00     0.000 OA
ENDBRANCH 5 16
BRANCH 1 22
ATOM     22  O4  BDP C   2      20.714  41.121  31.8030  0.00  0.00     0.000 O
BRANCH 22 26
ATOM     23  C1  BDP C   2      20.888  37.014  31.5550  0.00  0.00     0.000 C
ATOM     24  C2  BDP C   2      22.213  37.709  31.7560  0.00  0.00     0.000 C
ATOM     25  C3  BDP C   2      21.977  39.132  32.1910  0.00  0.00     0.000 C
ATOM     26  C4  BDP C   2      21.039  39.834  31.2150  0.00  0.00     0.000 C
ATOM     27  C5  BDP C   2      19.818  38.961  30.9530  0.00  0.00     0.000 C
ATOM     28  O5  BDP C   2      20.168  37.643  30.4580  0.00  0.00     0.000 O
ATOM     29   O  BDP C   2      22.964  37.148  32.8330  0.00  0.00     0.000 O
ATOM     31  HD  BDP C   2      23.433  37.701  33.3070  0.00  0.00     0.000 HD
ATOM     31   O  BDP C   2      23.244  39.777  32.2010  0.00  0.00     0.000 O
ATOM     33  HD  BDP C   2      23.713  40.330  32.6750  0.00  0.00     0.000 HD
BRANCH 27 33
ATOM     33   C  BDP C   2      18.894  39.556  29.9180  0.00  0.00     0.000 C
ATOM     34   O  BDP C   2      17.660  39.668  30.1130  0.00  0.00     0.000 OA
ATOM     35   O  BDP C   2      19.368  39.905  28.8490  0.00  0.00     0.000 OA
ENDBRANCH 27 33
BRANCH 23 36
ATOM     36  O4  SGN C   3      20.963  35.689  31.2880  0.00  0.00     0.000 O
BRANCH 36 40
ATOM     37  C1  SGN C   3      19.779  31.895  32.5650  0.00  0.00     0.000 C
ATOM     38  C2  SGN C   3      18.734  33.022  32.6110  0.00  0.00     0.000 C
ATOM     39  C3  SGN C   3      19.167  34.185  31.7300  0.00  0.00     0.000 C
ATOM     40  C4  SGN C   3      20.538  34.649  32.1730  0.00  0.00     0.000 C
ATOM     41  C5  SGN C   3      21.492  33.476  32.1190  0.00  0.00     0.000 C
ATOM     42  O5  SGN C   3      21.024  32.430  32.9850  0.00  0.00     0.000 O
ATOM     43   O  SGN C   3      18.214  35.235  31.8380  0.00  0.00     0.000 O
ATOM     45  HD  SGN C   3      18.992  35.562  31.6420  0.00  0.00     0.000 HD
BRANCH 38 47
ATOM     45   N  SGN C   3      17.507  32.387  32.0990  0.00  0.00     0.000 N
ATOM     47  HD  SGN C   3      18.286  32.727  31.9350  0.00  0.00     0.000 HD
ATOM     47   S  SGN C   3      16.644  31.732  33.2620  0.00  0.00     0.000 S
ATOM     48   O  SGN C   3      17.322  30.635  33.8550  0.00  0.00     0.000 OA
ATOM     49   O  SGN C   3      16.259  32.794  34.1330  0.00  0.00     0.000 OA
ATOM     50   O  SGN C   3      15.500  31.202  32.5220  0.00  0.00     0.000 OA
ENDBRANCH 38 47
BRANCH 41 51
ATOM     51   C  SGN C   3      22.899  33.807  32.5340  0.00  0.00     0.000 C
ATOM     52   O  SGN C   3      25.801  34.510  30.3050  0.00  0.00     0.000 OA
ATOM     53   O  SGN C   3      25.272  35.426  32.4530  0.00  0.00     0.000 OA
ATOM     54   O  SGN C   3      25.778  33.091  32.2170  0.00  0.00     0.000 OA
ATOM     55   O  SGN C   3      23.670  34.050  31.3780  0.00  0.00     0.000 O
ATOM     56   S  SGN C   3      25.281  34.291  31.6120  0.00  0.00     0.000 S
ENDBRANCH 41 51
BRANCH 37 57
ATOM     57  O4  IDS C   4      19.950  31.332  31.3440  0.00  0.00     0.000 O
BRANCH 57 61
ATOM     58  C1  IDS C   4      19.668  28.177  29.2370  0.00  0.00     0.000 C
ATOM     59  C2  IDS C   4      18.738  28.353  30.3950  0.00  0.00     0.000 C
ATOM     60  C3  IDS C   4      19.425  28.960  31.6200  0.00  0.00     0.000 C
ATOM     61  C4  IDS C   4      20.503  30.002  31.3500  0.00  0.00     0.000 C
ATOM     62  C5  IDS C   4      21.228  29.703  30.0320  0.00  0.00     0.000 C
ATOM     63  O5  IDS C   4      20.317  29.411  28.9830  0.00  0.00     0.000 O
ATOM     64   O  IDS C   4      20.021  27.867  32.2930  0.00  0.00     0.000 O
ATOM     66  HD  IDS C   4      20.885  27.925  32.2610  0.00  0.00     0.000 HD
BRANCH 59 66
ATOM     66   O  IDS C   4      17.616  29.249  30.0580  0.00  0.00     0.000 O
ATOM     67   S  IDS C   4      16.172  28.585  29.9850  0.00  0.00     0.000 S
ATOM     68   O  IDS C   4      15.935  28.163  31.3450  0.00  0.00     0.000 OA
ATOM     69   O  IDS C   4      15.298  29.640  29.5110  0.00  0.00     0.000 OA
ATOM     70   O  IDS C   4      16.266  27.449  29.0800  0.00  0.00     0.000 OA
ENDBRANCH 59 66
BRANCH 62 71
ATOM     71   C  IDS C   4      22.063  30.869  29.5360  0.00  0.00     0.000 C
ATOM     72   O  IDS C   4      23.123  31.131  30.0690  0.00  0.00     0.000 OA
ATOM     73   O  IDS C   4      21.587  31.604  28.6480  0.00  0.00     0.000 OA
ENDBRANCH 62 71
BRANCH 58 74
ATOM     74  O4  SGN C   5      20.405  27.029  29.2610  0.00  0.00     0.000 O
BRANCH 74 78
ATOM     75  C1  SGN C   5      22.111  23.939  27.0290  0.00  0.00     0.000 C
ATOM     76  C2  SGN C   5      22.698  25.344  26.7970  0.00  0.00     0.000 C
ATOM     77  C3  SGN C   5      22.241  26.311  27.8970  0.00  0.00     0.000 C
ATOM     78  C4  SGN C   5      20.739  26.227  28.1280  0.00  0.00     0.000 C
ATOM     79  C5  SGN C   5      20.342  24.778  28.3640  0.00  0.00     0.000 C
ATOM     80  O5  SGN C   5      20.700  23.982  27.2030  0.00  0.00     0.000 O
ATOM     81   O  SGN C   5      22.618  27.636  27.5330  0.00  0.00     0.000 O
ATOM     83  HD  SGN C   5      23.364  27.800  27.1260  0.00  0.00     0.000 HD
BRANCH 76 85
ATOM     83   N  SGN C   5      23.896  25.822  26.0950  0.00  0.00     0.000 N
ATOM     85  HD  SGN C   5      24.510  25.748  25.4890  0.00  0.00     0.000 HD
ATOM     85   S  SGN C   5      25.174  24.993  25.5720  0.00  0.00     0.000 S
ATOM     86   O  SGN C   5      26.085  25.854  24.9010  0.00  0.00     0.000 OA
ATOM     87   O  SGN C   5      25.676  24.256  26.6760  0.00  0.00     0.000 OA
ATOM     88   O  SGN C   5      24.412  24.130  24.5690  0.00  0.00     0.000 OA
ENDBRANCH 76 85
BRANCH 79 89
ATOM     89   C  SGN C   5      18.861  24.592  28.6290  0.00  0.00     0.000 C
ATOM     90   O  SGN C   5      18.529  23.183  28.5880  0.00  0.00     0.000 O
ATOM     91   S  SGN C   5      17.331  22.697  29.5390  0.00  0.00     0.000 S
ATOM     92   O  SGN C   5      17.645  23.169  30.8620  0.00  0.00     0.000 OA
ATOM     93   O  SGN C   5      16.118  23.276  29.0210  0.00  0.00     0.000 OA
ATOM     94   O  SGN C   5      17.372  21.265  29.4170  0.00  0.00     0.000 OA
ENDBRANCH 79 89
BRANCH 75 95
ATOM     95  O4  BDP C   6      22.700  23.473  28.1700  0.00  0.00     0.000 O
BRANCH 95 99
ATOM     96  C1  BDP C   6      23.856  19.342  28.3880  0.00  0.00     0.000 C
ATOM     97  C2  BDP C   6      22.931  19.776  27.2860  0.00  0.00     0.000 C
ATOM     98  C3  BDP C   6      22.883  21.294  27.0590  0.00  0.00     0.000 C
ATOM     99  C4  BDP C   6      22.693  22.043  28.3700  0.00  0.00     0.000 C
ATOM    100  C5  BDP C   6      23.736  21.510  29.3800  0.00  0.00     0.000 C
ATOM    101  O5  BDP C   6      23.415  20.114  29.4900  0.00  0.00     0.000 O
BRANCH 100 102
ATOM    102   C  BDP C   6      23.590  22.129  30.7470  0.00  0.00     0.000 C
ATOM    103   O  BDP C   6      22.500  22.532  31.1790  0.00  0.00     0.000 OA
ATOM    104   O  BDP C   6      24.613  22.208  31.4370  0.00  0.00     0.000 OA
ENDBRANCH 100 102
ENDBRANCH 95 99
ENDBRANCH 75 95
ENDBRANCH 74 78
ENDBRANCH 58 74
ENDBRANCH 57 61
ENDBRANCH 37 57
ENDBRANCH 36 40
ENDBRANCH 23 36
ENDBRANCH 22 26
ENDBRANCH 1 22
TORSDOF 20
ENDMDL
MODEL 99
REMARK VINA RESULT:       1.1     34.918     41.497
ROOT
ATOM      1  C1  NGY C   1      12.682  25.892  70.1580  0.00  0.00     0.000 C
ATOM      2  C2  NGY C   1      13.798  26.925  70.0900  0.00  0.00     0.000 C
ATOM      3  C3  NGY C   1      14.665  26.849  71.3420  0.00  0.00     0.000 C
ATOM      4  C4  NGY C   1      13.764  26.990  72.5540  0.00  0.00     0.000 C
ATOM      5  C5  NGY C   1      12.749  25.851  72.5450  0.00  0.00     0.000 C
ATOM      6  O5  NGY C   1      11.934  25.978  71.3510  0.00  0.00     0.000 O
ATOM      7   O  NGY C   1      15.652  27.869  71.2890  0.00  0.00     0.000 O
ATOM      9  HD  NGY C   1      15.709  28.687  71.0110  0.00  0.00     0.000 HD
ATOM      9   O  NGY C   1      14.520  26.961  73.7560  0.00  0.00     0.000 O
ATOM     11  HD  NGY C   1      14.577  27.779  73.4780  0.00  0.00     0.000 HD
ENDROOT
BRANCH 2 13
ATOM     11   N  NGY C   1      14.493  26.695  68.8450  0.00  0.00     0.000 N
ATOM     13  HD  NGY C   1      14.621  27.518  68.6090  0.00  0.00     0.000 HD
ATOM     13   C  NGY C   1      14.910  27.704  68.0820  0.00  0.00     0.000 C
ATOM     14   O  NGY C   1      14.594  28.867  68.3350  0.00  0.00     0.000 OA
ATOM     15   C  NGY C   1      15.798  27.351  66.9270  0.00  0.00     0.000 C
ENDBRANCH 2 13
BRANCH 5 16
ATOM     16   C  NGY C   1      11.788  25.847  73.6910  0.00  0.00     0.000 C
ATOM     17   O  NGY C   1      12.095  23.652  76.6140  0.00  0.00     0.000 OA
ATOM     18   O  NGY C   1      12.085  24.732  74.5360  0.00  0.00     0.000 O
ATOM     19   S  NGY C   1      11.500  24.808  75.9920  0.00  0.00     0.000 S
ATOM     20   O  NGY C   1      10.069  24.696  75.8820  0.00  0.00     0.000 OA
ATOM     21   O  NGY C   1      11.945  26.096  76.4990  0.00  0.00     0.000 OA
ENDBRANCH 5 16
BRANCH 1 22
ATOM     22  O4  BDP C   2      13.213  24.666  69.9650  0.00  0.00     0.000 O
BRANCH 22 26
ATOM     23  C1  BDP C   2      13.006  20.813  68.5230  0.00  0.00     0.000 C
ATOM     24  C2  BDP C   2      13.163  21.891  67.4770  0.00  0.00     0.000 C
ATOM     25  C3  BDP C   2      13.588  23.177  68.1360  0.00  0.00     0.000 C
ATOM     26  C4  BDP C   2      12.631  23.533  69.2680  0.00  0.00     0.000 C
ATOM     27  C5  BDP C   2      12.413  22.318  70.1610  0.00  0.00     0.000 C
ATOM     28  O5  BDP C   2      11.923  21.165  69.4290  0.00  0.00     0.000 O
ATOM     29   O  BDP C   2      14.225  21.613  66.5640  0.00  0.00     0.000 O
ATOM     31  HD  BDP C   2      14.680  22.293  66.2800  0.00  0.00     0.000 HD
ATOM     31   O  BDP C   2      13.555  24.186  67.1330  0.00  0.00     0.000 O
ATOM     33  HD  BDP C   2      14.011  24.866  66.8500  0.00  0.00     0.000 HD
BRANCH 27 33
ATOM     33   C  BDP C   2      11.397  22.575  71.2480  0.00  0.00     0.000 C
ATOM     34   O  BDP C   2      11.634  22.324  72.4540  0.00  0.00     0.000 OA
ATOM     35   O  BDP C   2      10.303  23.010  70.9290  0.00  0.00     0.000 OA
ENDBRANCH 27 33
BRANCH 23 36
ATOM     36  O4  SGN C   3      12.753  19.573  68.0440  0.00  0.00     0.000 O
BRANCH 36 40
ATOM     37  C1  SGN C   3      13.722  15.542  68.5340  0.00  0.00     0.000 C
ATOM     38  C2  SGN C   3      12.375  16.026  69.0940  0.00  0.00     0.000 C
ATOM     39  C3  SGN C   3      11.985  17.357  68.4680  0.00  0.00     0.000 C
ATOM     40  C4  SGN C   3      13.099  18.353  68.7040  0.00  0.00     0.000 C
ATOM     41  C5  SGN C   3      14.386  17.787  68.1450  0.00  0.00     0.000 C
ATOM     42  O5  SGN C   3      14.693  16.544  68.7950  0.00  0.00     0.000 O
ATOM     43   O  SGN C   3      10.766  17.808  69.0460  0.00  0.00     0.000 O
ATOM     45  HD  SGN C   3      11.233  18.485  68.7750  0.00  0.00     0.000 HD
BRANCH 38 47
ATOM     45   N  SGN C   3      12.551  14.842  69.9530  0.00  0.00     0.000 N
ATOM     47  HD  SGN C   3      12.794  15.646  69.7450  0.00  0.00     0.000 HD
ATOM     47   S  SGN C   3      11.331  13.830  69.8330  0.00  0.00     0.000 S
ATOM     48   O  SGN C   3      10.135  14.397  70.3470  0.00  0.00     0.000 OA
ATOM     49   O  SGN C   3      11.299  13.387  68.4780  0.00  0.00     0.000 OA
ATOM     50   O  SGN C   3      11.743  12.759  70.7390  0.00  0.00     0.000 OA
ENDBRANCH 38 47
BRANCH 41 51
ATOM     51   C  SGN C   3      15.579  18.689  68.3130  0.00  0.00     0.000 C
ATOM     52   O  SGN C   3      17.697  20.152  65.6200  0.00  0.00     0.000 OA
ATOM     53   O  SGN C   3      17.080  21.072  67.7420  0.00  0.00     0.000 OA
ATOM     54   O  SGN C   3      18.451  19.104  67.6220  0.00  0.00     0.000 OA
ATOM     55   O  SGN C   3      16.058  19.053  67.0380  0.00  0.00     0.000 O
ATOM     56   S  SGN C   3      17.453  19.926  67.0040  0.00  0.00     0.000 S
ENDBRANCH 41 51
BRANCH 37 57
ATOM     57  O4  IDS C   4      13.723  15.288  67.2020  0.00  0.00     0.000 O
BRANCH 57 61
ATOM     58  C1  IDS C   4      14.886  12.702  64.6660  0.00  0.00     0.000 C
ATOM     59  C2  IDS C   4      14.758  12.295  66.1000  0.00  0.00     0.000 C
ATOM     60  C3  IDS C   4      15.242  13.377  67.0680  0.00  0.00     0.000 C
ATOM     61  C4  IDS C   4      14.975  14.821  66.6640  0.00  0.00     0.000 C
ATOM     62  C5  IDS C   4      15.008  14.973  65.1390  0.00  0.00     0.000 C
ATOM     63  O5  IDS C   4      14.254  13.959  64.4920  0.00  0.00     0.000 O
ATOM     64   O  IDS C   4      16.642  13.193  67.1630  0.00  0.00     0.000 O
ATOM     66  HD  IDS C   4      17.061  13.864  66.8120  0.00  0.00     0.000 HD
BRANCH 59 66
ATOM     66   O  IDS C   4      13.356  12.009  66.4590  0.00  0.00     0.000 O
ATOM     67   S  IDS C   4      12.990  10.485  66.7360  0.00  0.00     0.000 S
ATOM     68   O  IDS C   4      13.762  10.170  67.9130  0.00  0.00     0.000 OA
ATOM     69   O  IDS C   4      11.553  10.476  66.9270  0.00  0.00     0.000 OA
ATOM     70   O  IDS C   4      13.434   9.720  65.5810  0.00  0.00     0.000 OA
ENDBRANCH 59 66
BRANCH 62 71
ATOM     71   C  IDS C   4      14.420  16.287  64.6600  0.00  0.00     0.000 C
ATOM     72   O  IDS C   4      15.103  17.293  64.6480  0.00  0.00     0.000 OA
ATOM     73   O  IDS C   4      13.204  16.328  64.3840  0.00  0.00     0.000 OA
ENDBRANCH 62 71
BRANCH 58 74
ATOM     74  O4  SGN C   5      16.117  12.494  64.1170  0.00  0.00     0.000 O
BRANCH 74 78
ATOM     75  C1  SGN C   5      18.184  11.495  60.6280  0.00  0.00     0.000 C
ATOM     76  C2  SGN C   5      18.072  12.999  60.9400  0.00  0.00     0.000 C
ATOM     77  C3  SGN C   5      17.608  13.220  62.3860  0.00  0.00     0.000 C
ATOM     78  C4  SGN C   5      16.399  12.360  62.7240  0.00  0.00     0.000 C
ATOM     79  C5  SGN C   5      16.695  10.909  62.3760  0.00  0.00     0.000 C
ATOM     80  O5  SGN C   5      16.987  10.800  60.9570  0.00  0.00     0.000 O
ATOM     81   O  SGN C   5      17.307  14.600  62.5690  0.00  0.00     0.000 O
ATOM     83  HD  SGN C   5      17.775  15.221  62.1880  0.00  0.00     0.000 HD
BRANCH 76 85
ATOM     83   N  SGN C   5      18.799  13.268  59.6930  0.00  0.00     0.000 N
ATOM     85  HD  SGN C   5      19.525  13.422  59.2460  0.00  0.00     0.000 HD
ATOM     85   S  SGN C   5      20.016  14.286  59.4180  0.00  0.00     0.000 S
ATOM     86   O  SGN C   5      20.448  14.190  58.0660  0.00  0.00     0.000 OA
ATOM     87   O  SGN C   5      19.604  15.565  59.8740  0.00  0.00     0.000 OA
ATOM     88   O  SGN C   5      21.015  13.607  60.3510  0.00  0.00     0.000 OA
ENDBRANCH 76 85
BRANCH 79 89
ATOM     89   C  SGN C   5      15.554   9.965  62.7000  0.00  0.00     0.000 C
ATOM     90   O  SGN C   5      15.187   9.216  61.5160  0.00  0.00     0.000 O
ATOM     91   S  SGN C   5      14.626   7.730  61.7470  0.00  0.00     0.000 S
ATOM     92   O  SGN C   5      15.596   7.054  62.5690  0.00  0.00     0.000 OA
ATOM     93   O  SGN C   5      13.347   7.856  62.3970  0.00  0.00     0.000 OA
ATOM     94   O  SGN C   5      14.536   7.199  60.4140  0.00  0.00     0.000 OA
ENDBRANCH 79 89
BRANCH 75 95
ATOM     95  O4  BDP C   6      19.211  11.030  61.3990  0.00  0.00     0.000 O
BRANCH 95 99
ATOM     96  C1  BDP C   6      22.086   7.935  60.6200  0.00  0.00     0.000 C
ATOM     97  C2  BDP C   6      21.575   8.753  59.4670  0.00  0.00     0.000 C
ATOM     98  C3  BDP C   6      20.867  10.053  59.8760  0.00  0.00     0.000 C
ATOM     99  C4  BDP C   6      19.842   9.803  60.9730  0.00  0.00     0.000 C
ATOM    100  C5  BDP C   6      20.530   8.987  62.0930  0.00  0.00     0.000 C
ATOM    101  O5  BDP C   6      20.935   7.779  61.4290  0.00  0.00     0.000 O
BRANCH 100 102
ATOM    102   C  BDP C   6      19.582   8.611  63.2030  0.00  0.00     0.000 C
ATOM    103   O  BDP C   6      19.347   9.367  64.1570  0.00  0.00     0.000 OA
ATOM    104   O  BDP C   6      19.031   7.507  63.1180  0.00  0.00     0.000 OA
ENDBRANCH 100 102
ENDBRANCH 95 99
ENDBRANCH 75 95
ENDBRANCH 74 78
ENDBRANCH 58 74
ENDBRANCH 57 61
ENDBRANCH 37 57
ENDBRANCH 36 40
ENDBRANCH 23 36
ENDBRANCH 22 26
ENDBRANCH 1 22
TORSDOF 20
ENDMDL
MODEL 100
REMARK VINA RESULT:       1.5     27.376     39.150
ROOT
ATOM      1  C1  NGY C   1      35.652   9.647  66.5550  0.00  0.00     0.000 C
ATOM      2  C2  NGY C   1      37.057  10.062  66.9680  0.00  0.00     0.000 C
ATOM      3  C3  NGY C   1      37.937   8.831  67.1590  0.00  0.00     0.000 C
ATOM      4  C4  NGY C   1      37.251   7.903  68.1440  0.00  0.00     0.000 C
ATOM      5  C5  NGY C   1      35.895   7.499  67.5730  0.00  0.00     0.000 C
ATOM      6  O5  NGY C   1      35.086   8.696  67.4320  0.00  0.00     0.000 O
ATOM      7   O  NGY C   1      39.219   9.239  67.6140  0.00  0.00     0.000 O
ATOM      9  HD  NGY C   1      39.546   9.847  68.1370  0.00  0.00     0.000 HD
ATOM      9   O  NGY C   1      38.041   6.749  68.3900  0.00  0.00     0.000 O
ATOM     11  HD  NGY C   1      38.367   7.357  68.9130  0.00  0.00     0.000 HD
ENDROOT
BRANCH 2 13
ATOM     11   N  NGY C   1      37.348  11.110  66.0190  0.00  0.00     0.000 N
ATOM     13  HD  NGY C   1      37.919  11.562  66.4880  0.00  0.00     0.000 HD
ATOM     13   C  NGY C   1      38.208  12.088  66.3010  0.00  0.00     0.000 C
ATOM     14   O  NGY C   1      38.678  12.217  67.4320  0.00  0.00     0.000 OA
ATOM     15   C  NGY C   1      38.587  12.996  65.1710  0.00  0.00     0.000 C
ENDBRANCH 2 13
BRANCH 5 16
ATOM     16   C  NGY C   1      35.096   6.571  68.4310  0.00  0.00     0.000 C
ATOM     17   O  NGY C   1      32.526   4.291  67.1430  0.00  0.00     0.000 OA
ATOM     18   O  NGY C   1      34.051   5.998  67.6400  0.00  0.00     0.000 O
ATOM     19   S  NGY C   1      33.399   4.691  68.2180  0.00  0.00     0.000 S
ATOM     20   O  NGY C   1      32.672   5.067  69.4030  0.00  0.00     0.000 OA
ATOM     21   O  NGY C   1      34.522   3.807  68.4820  0.00  0.00     0.000 OA
ENDBRANCH 5 16
BRANCH 1 22
ATOM     22  O4  BDP C   2      35.685   9.218  65.2750  0.00  0.00     0.000 O
BRANCH 22 26
ATOM     23  C1  BDP C   2      33.707   8.793  61.6880  0.00  0.00     0.000 C
ATOM     24  C2  BDP C   2      33.251   9.947  62.5480  0.00  0.00     0.000 C
ATOM     25  C3  BDP C   2      34.271  10.209  63.6250  0.00  0.00     0.000 C
ATOM     26  C4  BDP C   2      34.567   8.927  64.3960  0.00  0.00     0.000 C
ATOM     27  C5  BDP C   2      34.842   7.789  63.4210  0.00  0.00     0.000 C
ATOM     28  O5  BDP C   2      33.753   7.577  62.4860  0.00  0.00     0.000 O
ATOM     29   O  BDP C   2      33.201  11.178  61.8260  0.00  0.00     0.000 O
ATOM     31  HD  BDP C   2      33.420  11.893  62.2630  0.00  0.00     0.000 HD
ATOM     31   O  BDP C   2      33.712  11.185  64.4960  0.00  0.00     0.000 O
ATOM     33  HD  BDP C   2      33.932  11.899  64.9330  0.00  0.00     0.000 HD
BRANCH 27 33
ATOM     33   C  BDP C   2      35.046   6.466  64.1190  0.00  0.00     0.000 C
ATOM     34   O  BDP C   2      36.189   6.006  64.3520  0.00  0.00     0.000 OA
ATOM     35   O  BDP C   2      34.062   5.817  64.4320  0.00  0.00     0.000 OA
ENDBRANCH 27 33
BRANCH 23 36
ATOM     36  O4  SGN C   3      32.939   8.541  60.6020  0.00  0.00     0.000 O
BRANCH 36 40
ATOM     37  C1  SGN C   3      32.952   7.724  56.5080  0.00  0.00     0.000 C
ATOM     38  C2  SGN C   3      33.146   6.543  57.4720  0.00  0.00     0.000 C
ATOM     39  C3  SGN C   3      32.687   6.919  58.8730  0.00  0.00     0.000 C
ATOM     40  C4  SGN C   3      33.437   8.156  59.3180  0.00  0.00     0.000 C
ATOM     41  C5  SGN C   3      33.210   9.255  58.3030  0.00  0.00     0.000 C
ATOM     42  O5  SGN C   3      33.681   8.831  57.0150  0.00  0.00     0.000 O
ATOM     43   O  SGN C   3      32.933   5.831  59.7550  0.00  0.00     0.000 O
ATOM     45  HD  SGN C   3      32.949   6.576  60.1950  0.00  0.00     0.000 HD
BRANCH 38 47
ATOM     45   N  SGN C   3      33.796   5.944  56.2930  0.00  0.00     0.000 N
ATOM     47  HD  SGN C   3      33.823   6.522  56.9370  0.00  0.00     0.000 HD
ATOM     47   S  SGN C   3      33.107   4.578  55.8610  0.00  0.00     0.000 S
ATOM     48   O  SGN C   3      33.290   3.571  56.8460  0.00  0.00     0.000 OA
ATOM     49   O  SGN C   3      31.762   4.893  55.5090  0.00  0.00     0.000 OA
ATOM     50   O  SGN C   3      33.898   4.204  54.6890  0.00  0.00     0.000 OA
ENDBRANCH 38 47
BRANCH 41 51
ATOM     51   C  SGN C   3      33.902  10.550  58.6320  0.00  0.00     0.000 C
ATOM     52   O  SGN C   3      37.539  11.067  59.2530  0.00  0.00     0.000 OA
ATOM     53   O  SGN C   3      35.946  12.528  58.2240  0.00  0.00     0.000 OA
ATOM     54   O  SGN C   3      35.732  11.931  60.5400  0.00  0.00     0.000 OA
ATOM     55   O  SGN C   3      35.288  10.310  58.7390  0.00  0.00     0.000 O
ATOM     56   S  SGN C   3      36.211  11.579  59.2370  0.00  0.00     0.000 S
ENDBRANCH 41 51
BRANCH 37 57
ATOM     57  O4  IDS C   4      31.664   8.108  56.3360  0.00  0.00     0.000 O
BRANCH 57 61
ATOM     58  C1  IDS C   4      29.719   9.426  53.3440  0.00  0.00     0.000 C
ATOM     59  C2  IDS C   4      31.113   8.926  53.1310  0.00  0.00     0.000 C
ATOM     60  C3  IDS C   4      32.065   9.332  54.2580  0.00  0.00     0.000 C
ATOM     61  C4  IDS C   4      31.481   9.369  55.6630  0.00  0.00     0.000 C
ATOM     62  C5  IDS C   4      29.999   9.760  55.6260  0.00  0.00     0.000 C
ATOM     63  O5  IDS C   4      29.287   9.032  54.6350  0.00  0.00     0.000 O
ATOM     64   O  IDS C   4      32.504  10.636  53.9240  0.00  0.00     0.000 O
ATOM     66  HD  IDS C   4      32.201  11.213  54.4940  0.00  0.00     0.000 HD
BRANCH 59 66
ATOM     66   O  IDS C   4      31.156   7.454  53.0570  0.00  0.00     0.000 O
ATOM     67   S  IDS C   4      32.432   6.815  52.3510  0.00  0.00     0.000 S
ATOM     68   O  IDS C   4      33.514   7.190  53.2290  0.00  0.00     0.000 OA
ATOM     69   O  IDS C   4      32.155   5.393  52.2960  0.00  0.00     0.000 OA
ATOM     70   O  IDS C   4      32.559   7.440  51.0440  0.00  0.00     0.000 OA
ENDBRANCH 59 66
BRANCH 62 71
ATOM     71   C  IDS C   4      29.278   9.485  56.9320  0.00  0.00     0.000 C
ATOM     72   O  IDS C   4      28.367   8.680  56.9680  0.00  0.00     0.000 OA
ATOM     73   O  IDS C   4      29.571  10.176  57.9280  0.00  0.00     0.000 OA
ENDBRANCH 62 71
BRANCH 58 74
ATOM     74  O4  SGN C   5      29.496  10.705  52.9280  0.00  0.00     0.000 O
BRANCH 74 78
ATOM     75  C1  SGN C   5      26.776  13.406  51.2700  0.00  0.00     0.000 C
ATOM     76  C2  SGN C   5      26.509  12.987  52.7280  0.00  0.00     0.000 C
ATOM     77  C3  SGN C   5      27.736  12.284  53.3230  0.00  0.00     0.000 C
ATOM     78  C4  SGN C   5      28.273  11.208  52.3900  0.00  0.00     0.000 C
ATOM     79  C5  SGN C   5      28.501  11.803  51.0080  0.00  0.00     0.000 C
ATOM     80  O5  SGN C   5      27.246  12.315  50.4880  0.00  0.00     0.000 O
ATOM     81   O  SGN C   5      27.379  11.721  54.5820  0.00  0.00     0.000 O
ATOM     83  HD  SGN C   5      26.834  12.124  55.1220  0.00  0.00     0.000 HD
BRANCH 76 85
ATOM     83   N  SGN C   5      25.381  13.925  52.6590  0.00  0.00     0.000 N
ATOM     85  HD  SGN C   5      24.999  14.680  52.8430  0.00  0.00     0.000 HD
ATOM     85   S  SGN C   5      24.771  14.877  53.8060  0.00  0.00     0.000 S
ATOM     86   O  SGN C   5      23.702  15.658  53.2870  0.00  0.00     0.000 OA
ATOM     87   O  SGN C   5      24.485  14.054  54.9260  0.00  0.00     0.000 OA
ATOM     88   O  SGN C   5      26.021  15.734  53.9920  0.00  0.00     0.000 OA
ENDBRANCH 76 85
BRANCH 79 89
ATOM     89   C  SGN C   5      29.061  10.811  50.0090  0.00  0.00     0.000 C
ATOM     90   O  SGN C   5      28.062   9.807  49.7030  0.00  0.00     0.000 O
ATOM     91   S  SGN C   5      28.098   9.182  48.2240  0.00  0.00     0.000 S
ATOM     92   O  SGN C   5      28.083  10.296  47.3120  0.00  0.00     0.000 OA
ATOM     93   O  SGN C   5      29.305   8.404  48.1230  0.00  0.00     0.000 OA
ATOM     94   O  SGN C   5      26.902   8.385  48.1740  0.00  0.00     0.000 OA
ENDBRANCH 79 89
BRANCH 75 95
ATOM     95  O4  BDP C   6      27.738  14.374  51.3310  0.00  0.00     0.000 O
BRANCH 95 99
ATOM     96  C1  BDP C   6      28.421  17.962  49.0710  0.00  0.00     0.000 C
ATOM     97  C2  BDP C   6      27.091  17.776  49.7450  0.00  0.00     0.000 C
ATOM     98  C3  BDP C   6      27.073  16.679  50.8210  0.00  0.00     0.000 C
ATOM     99  C4  BDP C   6      27.704  15.393  50.3080  0.00  0.00     0.000 C
ATOM    100  C5  BDP C   6      29.072  15.748  49.6800  0.00  0.00     0.000 C
ATOM    101  O5  BDP C   6      28.730  16.657  48.6200  0.00  0.00     0.000 O
BRANCH 100 102
ATOM    102   C  BDP C   6      29.757  14.554  49.0650  0.00  0.00     0.000 C
ATOM    103   O  BDP C   6      30.899  14.203  49.3960  0.00  0.00     0.000 OA
ATOM    104   O  BDP C   6      29.121  13.922  48.2140  0.00  0.00     0.000 OA
ENDBRANCH 100 102
ENDBRANCH 95 99
ENDBRANCH 75 95
ENDBRANCH 74 78
ENDBRANCH 58 74
ENDBRANCH 57 61
ENDBRANCH 37 57
ENDBRANCH 36 40
ENDBRANCH 23 36
ENDBRANCH 22 26
ENDBRANCH 1 22
TORSDOF 20
ENDMDL
