MODEL 1
REMARK VINA RESULT:      -5.3      0.000      0.000
ROOT
ATOM      1  C1  BGC C   1       5.567   2.943   3.9170  0.00  0.00     0.000 C
ATOM      2  C2  BGC C   1       4.358   2.794   4.8410  0.00  0.00     0.000 C
ATOM      3  C3  BGC C   1       3.151   2.311   4.0460  0.00  0.00     0.000 C
ATOM      4  C4  BGC C   1       2.910   3.147   2.8000  0.00  0.00     0.000 C
ATOM      5  C5  BGC C   1       4.220   3.357   2.0440  0.00  0.00     0.000 C
ATOM      6  O5  BGC C   1       5.276   3.767   2.8540  0.00  0.00     0.000 O
ATOM      7   O  BGC C   1       4.698   1.855   5.8330  0.00  0.00     0.000 O
ATOM      9  HD  BGC C   1       4.055   2.434   5.8720  0.00  0.00     0.000 HD
ATOM      9   O  BGC C   1       2.014   2.312   4.9200  0.00  0.00     0.000 O
ATOM     11  HD  BGC C   1       1.371   2.890   4.9580  0.00  0.00     0.000 HD
ATOM     11   O  BGC C   1       1.968   2.438   2.0040  0.00  0.00     0.000 O
ATOM     13  HD  BGC C   1       1.325   3.016   2.0420  0.00  0.00     0.000 HD
ATOM     13   O  BGC C   1       3.756   5.741   1.5530  0.00  0.00     0.000 O
ATOM     15  HD  BGC C   1       3.113   6.320   1.5920  0.00  0.00     0.000 HD
ATOM     15   C  BGC C   1       3.983   4.430   0.9650  0.00  0.00     0.000 C
ENDROOT
BRANCH 1 16
ATOM     16  O4  BGC C   2       6.611   3.555   4.6380  0.00  0.00     0.000 O
BRANCH 16 20
ATOM     17  C1  BGC C   2      10.694   3.607   4.6030  0.00  0.00     0.000 C
ATOM     18  C2  BGC C   2      10.009   4.520   3.5980  0.00  0.00     0.000 C
ATOM     19  C3  BGC C   2       8.536   4.693   3.9420  0.00  0.00     0.000 C
ATOM     20  C4  BGC C   2       7.904   3.353   4.1190  0.00  0.00     0.000 C
ATOM     21  C5  BGC C   2       8.709   2.490   5.0860  0.00  0.00     0.000 C
ATOM     22  O5  BGC C   2      10.035   2.374   4.6640  0.00  0.00     0.000 O
ATOM     23   O  BGC C   2      10.677   5.790   3.5960  0.00  0.00     0.000 O
ATOM     25  HD  BGC C   2      10.096   6.431   3.5410  0.00  0.00     0.000 HD
ATOM     25   O  BGC C   2       7.890   5.396   2.8880  0.00  0.00     0.000 O
ATOM     27  HD  BGC C   2       7.309   6.036   2.8330  0.00  0.00     0.000 HD
ATOM     27   C  BGC C   2       8.140   1.075   5.3160  0.00  0.00     0.000 C
ATOM     28   O  BGC C   2       7.955   0.379   4.0730  0.00  0.00     0.000 O
ATOM     30  HD  BGC C   2       7.374   1.020   4.0180  0.00  0.00     0.000 HD
BRANCH 17 30
ATOM     30  O4  BGC C   3      12.027   3.384   4.1960  0.00  0.00     0.000 O
BRANCH 30 34
ATOM     31  C1  BGC C   3      15.783   3.096   5.6630  0.00  0.00     0.000 C
ATOM     32  C2  BGC C   3      14.838   1.919   6.0020  0.00  0.00     0.000 C
ATOM     33  C3  BGC C   3      13.618   1.943   5.1470  0.00  0.00     0.000 C
ATOM     34  C4  BGC C   3      12.999   3.341   5.2290  0.00  0.00     0.000 C
ATOM     35  C5  BGC C   3      14.016   4.489   5.0050  0.00  0.00     0.000 C
ATOM     36  O5  BGC C   3      15.126   4.325   5.8520  0.00  0.00     0.000 O
ATOM     37   O  BGC C   3      15.352   0.602   5.9300  0.00  0.00     0.000 O
ATOM     39  HD  BGC C   3      14.671   1.118   5.7880  0.00  0.00     0.000 HD
ATOM     39   O  BGC C   3      12.674   0.923   5.5870  0.00  0.00     0.000 O
ATOM     41  HD  BGC C   3      11.993   1.438   5.4460  0.00  0.00     0.000 HD
ATOM     41   C  BGC C   3      13.467   5.911   5.2600  0.00  0.00     0.000 C
ATOM     42   O  BGC C   3      13.063   6.188   6.6490  0.00  0.00     0.000 O
ATOM     44  HD  BGC C   3      12.382   6.703   6.5070  0.00  0.00     0.000 HD
BRANCH 31 44
ATOM     44  O4  BGC C   4      16.919   3.069   6.4610  0.00  0.00     0.000 O
BRANCH 44 48
ATOM     45  C1  BGC C   4      20.970   3.655   6.5100  0.00  0.00     0.000 C
ATOM     46  C2  BGC C   4      20.214   4.944   6.0540  0.00  0.00     0.000 C
ATOM     47  C3  BGC C   4      18.761   4.602   6.4060  0.00  0.00     0.000 C
ATOM     48  C4  BGC C   4      18.187   3.286   5.9170  0.00  0.00     0.000 C
ATOM     49  C5  BGC C   4      19.099   2.185   6.4810  0.00  0.00     0.000 C
ATOM     50  O5  BGC C   4      20.417   2.392   6.1090  0.00  0.00     0.000 O
ATOM     51   O  BGC C   4      20.515   6.340   6.6290  0.00  0.00     0.000 O
ATOM     53  HD  BGC C   4      19.936   6.925   6.3610  0.00  0.00     0.000 HD
ATOM     53   O  BGC C   4      18.047   5.644   5.5890  0.00  0.00     0.000 O
ATOM     55  HD  BGC C   4      17.468   6.229   5.3210  0.00  0.00     0.000 HD
ATOM     55   C  BGC C   4      18.731   0.832   5.9300  0.00  0.00     0.000 C
ATOM     56   O  BGC C   4      18.732   0.723   4.5020  0.00  0.00     0.000 O
ATOM     58  HD  BGC C   4      18.152   1.309   4.2340  0.00  0.00     0.000 HD
BRANCH 45 58
ATOM     58  O4  BGC C   5      22.294   3.636   6.0670  0.00  0.00     0.000 O
BRANCH 58 62
ATOM     59  C1  BGC C   5      24.956   3.261   4.6070  0.00  0.00     0.000 C
ATOM     60  C2  BGC C   5      24.985   4.590   5.1770  0.00  0.00     0.000 C
ATOM     61  C3  BGC C   5      23.690   5.373   4.9760  0.00  0.00     0.000 C
ATOM     62  C4  BGC C   5      22.535   4.390   4.8530  0.00  0.00     0.000 C
ATOM     63  C5  BGC C   5      22.980   3.289   3.9190  0.00  0.00     0.000 C
ATOM     64  O5  BGC C   5      24.370   3.171   3.6270  0.00  0.00     0.000 O
ATOM     65   O  BGC C   5      22.497   4.503   1.8870  0.00  0.00     0.000 O
ATOM     67  HD  BGC C   5      22.214   3.938   2.4790  0.00  0.00     0.000 HD
ATOM     67   O  BGC C   5      22.497   4.503   1.8870  0.00  0.00     0.000 O
ATOM     69  HD  BGC C   5      22.214   3.938   2.4790  0.00  0.00     0.000 HD
ENDBRANCH 58 62
ENDBRANCH 45 58
ENDBRANCH 44 48
ENDBRANCH 31 44
ENDBRANCH 30 34
ENDBRANCH 17 30
ENDBRANCH 16 20
ENDBRANCH 1 16
TORSDOF 8
ENDMDL
MODEL 2
REMARK VINA RESULT:      -5.0      2.144      2.861
ROOT
ATOM      1  C1  BGC C   1       3.983   3.302   3.1850  0.00  0.00     0.000 C
ATOM      2  C2  BGC C   1       2.933   2.714   4.1270  0.00  0.00     0.000 C
ATOM      3  C3  BGC C   1       1.872   1.968   3.3270  0.00  0.00     0.000 C
ATOM      4  C4  BGC C   1       1.318   2.805   2.1870  0.00  0.00     0.000 C
ATOM      5  C5  BGC C   1       2.456   3.465   1.4140  0.00  0.00     0.000 C
ATOM      6  O5  BGC C   1       3.395   4.095   2.2250  0.00  0.00     0.000 O
ATOM      7   O  BGC C   1       3.597   1.833   5.0020  0.00  0.00     0.000 O
ATOM      9  HD  BGC C   1       2.816   2.187   5.1240  0.00  0.00     0.000 HD
ATOM      9   O  BGC C   1       0.844   1.548   4.2340  0.00  0.00     0.000 O
ATOM     11  HD  BGC C   1       0.063   1.902   4.3560  0.00  0.00     0.000 HD
ATOM     11   O  BGC C   1       0.576   1.922   1.3510  0.00  0.00     0.000 O
ATOM     13  HD  BGC C   1      -0.205   2.276   1.4730  0.00  0.00     0.000 HD
ATOM     13   O  BGC C   1       1.282   5.636   1.1960  0.00  0.00     0.000 O
ATOM     15  HD  BGC C   1       0.501   5.990   1.3180  0.00  0.00     0.000 HD
ATOM     15   C  BGC C   1       1.846   4.513   0.4640  0.00  0.00     0.000 C
ENDROOT
BRANCH 1 16
ATOM     16  O4  BGC C   2       4.845   4.128   3.9300  0.00  0.00     0.000 O
BRANCH 16 20
ATOM     17  C1  BGC C   2       8.728   5.388   3.8240  0.00  0.00     0.000 C
ATOM     18  C2  BGC C   2       7.826   5.921   2.7220  0.00  0.00     0.000 C
ATOM     19  C3  BGC C   2       6.361   5.690   3.0650  0.00  0.00     0.000 C
ATOM     20  C4  BGC C   2       6.151   4.257   3.4210  0.00  0.00     0.000 C
ATOM     21  C5  BGC C   2       7.155   3.802   4.4770  0.00  0.00     0.000 C
ATOM     22  O5  BGC C   2       8.464   4.034   4.0530  0.00  0.00     0.000 O
ATOM     23   O  BGC C   2       8.086   7.322   2.5480  0.00  0.00     0.000 O
ATOM     25  HD  BGC C   2       7.343   7.749   2.4210  0.00  0.00     0.000 HD
ATOM     25   O  BGC C   2       5.559   6.029   1.9400  0.00  0.00     0.000 O
ATOM     27  HD  BGC C   2       4.816   6.456   1.8130  0.00  0.00     0.000 HD
ATOM     27   C  BGC C   2       7.026   2.323   4.8950  0.00  0.00     0.000 C
ATOM     28   O  BGC C   2       7.084   1.452   3.7540  0.00  0.00     0.000 O
ATOM     30  HD  BGC C   2       6.341   1.878   3.6270  0.00  0.00     0.000 HD
BRANCH 17 30
ATOM     30  O4  BGC C   3      10.076   5.523   3.4280  0.00  0.00     0.000 O
BRANCH 30 34
ATOM     31  C1  BGC C   3      13.832   4.900   4.7870  0.00  0.00     0.000 C
ATOM     32  C2  BGC C   3      13.106   3.654   4.2260  0.00  0.00     0.000 C
ATOM     33  C3  BGC C   3      11.897   4.040   3.4470  0.00  0.00     0.000 C
ATOM     34  C4  BGC C   3      11.047   4.976   4.3090  0.00  0.00     0.000 C
ATOM     35  C5  BGC C   3      11.849   6.138   4.9490  0.00  0.00     0.000 C
ATOM     36  O5  BGC C   3      12.974   5.634   5.6250  0.00  0.00     0.000 O
ATOM     37   O  BGC C   3      13.840   2.759   3.4100  0.00  0.00     0.000 O
ATOM     39  HD  BGC C   3      13.079   3.150   3.5470  0.00  0.00     0.000 HD
ATOM     39   O  BGC C   3      11.145   2.852   3.0610  0.00  0.00     0.000 O
ATOM     41  HD  BGC C   3      10.384   3.242   3.1980  0.00  0.00     0.000 HD
ATOM     41   C  BGC C   3      11.063   6.994   5.9680  0.00  0.00     0.000 C
ATOM     42   O  BGC C   3      10.625   6.281   7.1800  0.00  0.00     0.000 O
ATOM     44  HD  BGC C   3       9.864   6.672   7.3170  0.00  0.00     0.000 HD
BRANCH 31 44
ATOM     44  O4  BGC C   4      14.960   4.536   5.5110  0.00  0.00     0.000 O
BRANCH 44 48
ATOM     45  C1  BGC C   4      18.955   5.327   5.9240  0.00  0.00     0.000 C
ATOM     46  C2  BGC C   4      18.111   6.086   6.9960  0.00  0.00     0.000 C
ATOM     47  C3  BGC C   4      16.739   5.415   6.8550  0.00  0.00     0.000 C
ATOM     48  C4  BGC C   4      16.121   5.311   5.4750  0.00  0.00     0.000 C
ATOM     49  C5  BGC C   4      17.133   4.543   4.6090  0.00  0.00     0.000 C
ATOM     50  O5  BGC C   4      18.371   5.164   4.6220  0.00  0.00     0.000 O
ATOM     51   O  BGC C   4      18.471   6.097   8.4930  0.00  0.00     0.000 O
ATOM     53  HD  BGC C   4      17.845   6.461   8.9680  0.00  0.00     0.000 HD
ATOM     53   O  BGC C   4      15.884   6.426   7.5680  0.00  0.00     0.000 O
ATOM     55  HD  BGC C   4      15.258   6.790   8.0430  0.00  0.00     0.000 HD
ATOM     55   C  BGC C   4      16.710   4.515   3.1640  0.00  0.00     0.000 C
ATOM     56   O  BGC C   4      16.486   5.794   2.5590  0.00  0.00     0.000 O
ATOM     58  HD  BGC C   4      15.860   6.158   3.0330  0.00  0.00     0.000 HD
BRANCH 45 58
ATOM     58  O4  BGC C   5      20.192   5.935   5.7000  0.00  0.00     0.000 O
BRANCH 58 62
ATOM     59  C1  BGC C   5      22.814   7.343   4.9960  0.00  0.00     0.000 C
ATOM     60  C2  BGC C   5      21.752   8.267   4.6650  0.00  0.00     0.000 C
ATOM     61  C3  BGC C   5      20.586   7.620   3.9220  0.00  0.00     0.000 C
ATOM     62  C4  BGC C   5      20.514   6.149   4.3030  0.00  0.00     0.000 C
ATOM     63  C5  BGC C   5      21.922   5.603   4.2510  0.00  0.00     0.000 C
ATOM     64  O5  BGC C   5      23.006   6.530   4.2130  0.00  0.00     0.000 O
ATOM     65   O  BGC C   5      21.941   5.246   1.8610  0.00  0.00     0.000 O
ATOM     67  HD  BGC C   5      21.798   4.905   2.6440  0.00  0.00     0.000 HD
ATOM     67   O  BGC C   5      21.941   5.246   1.8610  0.00  0.00     0.000 O
ATOM     69  HD  BGC C   5      21.798   4.905   2.6440  0.00  0.00     0.000 HD
ENDBRANCH 58 62
ENDBRANCH 45 58
ENDBRANCH 44 48
ENDBRANCH 31 44
ENDBRANCH 30 34
ENDBRANCH 17 30
ENDBRANCH 16 20
ENDBRANCH 1 16
TORSDOF 8
ENDMDL
MODEL 3
REMARK VINA RESULT:      -5.0      2.210      4.340
ROOT
ATOM      1  C1  BGC C   1       3.939   3.221   3.5560  0.00  0.00     0.000 C
ATOM      2  C2  BGC C   1       2.978   3.003   2.3880  0.00  0.00     0.000 C
ATOM      3  C3  BGC C   1       1.539   3.176   2.8570  0.00  0.00     0.000 C
ATOM      4  C4  BGC C   1       1.236   2.357   4.1010  0.00  0.00     0.000 C
ATOM      5  C5  BGC C   1       2.346   2.537   5.1330  0.00  0.00     0.000 C
ATOM      6  O5  BGC C   1       3.628   2.394   4.6110  0.00  0.00     0.000 O
ATOM      7   O  BGC C   1       3.289   3.958   1.4010  0.00  0.00     0.000 O
ATOM      9  HD  BGC C   1       2.840   3.227   1.2850  0.00  0.00     0.000 HD
ATOM      9   O  BGC C   1       0.672   2.836   1.7660  0.00  0.00     0.000 O
ATOM     11  HD  BGC C   1       0.222   2.104   1.6500  0.00  0.00     0.000 HD
ATOM     11   O  BGC C   1      -0.012   2.819   4.6040  0.00  0.00     0.000 O
ATOM     13  HD  BGC C   1      -0.462   2.088   4.4890  0.00  0.00     0.000 HD
ATOM     13   O  BGC C   1       2.398   0.138   5.7510  0.00  0.00     0.000 O
ATOM     15  HD  BGC C   1       1.949  -0.593   5.6350  0.00  0.00     0.000 HD
ATOM     15   C  BGC C   1       2.146   1.484   6.2390  0.00  0.00     0.000 C
ENDROOT
BRANCH 1 16
ATOM     16  O4  BGC C   2       5.241   2.884   3.1380  0.00  0.00     0.000 O
BRANCH 16 20
ATOM     17  C1  BGC C   2       9.050   4.154   3.8770  0.00  0.00     0.000 C
ATOM     18  C2  BGC C   2       8.520   3.070   4.8020  0.00  0.00     0.000 C
ATOM     19  C3  BGC C   2       7.267   2.430   4.2210  0.00  0.00     0.000 C
ATOM     20  C4  BGC C   2       6.285   3.493   3.8580  0.00  0.00     0.000 C
ATOM     21  C5  BGC C   2       6.937   4.569   2.9940  0.00  0.00     0.000 C
ATOM     22  O5  BGC C   2       8.057   5.108   3.6300  0.00  0.00     0.000 O
ATOM     23   O  BGC C   2       9.544   2.083   4.9950  0.00  0.00     0.000 O
ATOM     25  HD  BGC C   2       9.198   1.290   4.9880  0.00  0.00     0.000 HD
ATOM     25   O  BGC C   2       6.696   1.557   5.1880  0.00  0.00     0.000 O
ATOM     27  HD  BGC C   2       6.350   0.764   5.1810  0.00  0.00     0.000 HD
ATOM     27   C  BGC C   2       6.000   5.724   2.5850  0.00  0.00     0.000 C
ATOM     28   O  BGC C   2       5.380   6.324   3.7340  0.00  0.00     0.000 O
ATOM     30  HD  BGC C   2       5.033   5.530   3.7270  0.00  0.00     0.000 HD
BRANCH 17 30
ATOM     30  O4  BGC C   3      10.146   4.796   4.4930  0.00  0.00     0.000 O
BRANCH 30 34
ATOM     31  C1  BGC C   3      13.960   5.902   3.7410  0.00  0.00     0.000 C
ATOM     32  C2  BGC C   3      12.869   6.885   3.2550  0.00  0.00     0.000 C
ATOM     33  C3  BGC C   3      11.550   6.574   3.8720  0.00  0.00     0.000 C
ATOM     34  C4  BGC C   3      11.255   5.087   3.6550  0.00  0.00     0.000 C
ATOM     35  C5  BGC C   3      12.430   4.153   4.0420  0.00  0.00     0.000 C
ATOM     36  O5  BGC C   3      13.613   4.579   3.4130  0.00  0.00     0.000 O
ATOM     37   O  BGC C   3      13.082   8.272   3.4420  0.00  0.00     0.000 O
ATOM     39  HD  BGC C   3      12.506   7.625   3.4490  0.00  0.00     0.000 HD
ATOM     39   O  BGC C   3      10.508   7.408   3.2850  0.00  0.00     0.000 O
ATOM     41  HD  BGC C   3       9.933   6.761   3.2920  0.00  0.00     0.000 HD
ATOM     41   C  BGC C   3      12.237   2.666   3.6660  0.00  0.00     0.000 C
ATOM     42   O  BGC C   3      12.148   2.390   2.2220  0.00  0.00     0.000 O
ATOM     44  HD  BGC C   3      11.573   1.743   2.2290  0.00  0.00     0.000 HD
BRANCH 31 44
ATOM     44  O4  BGC C   4      15.189   6.198   3.1640  0.00  0.00     0.000 O
BRANCH 44 48
ATOM     45  C1  BGC C   4      19.222   6.078   3.8540  0.00  0.00     0.000 C
ATOM     46  C2  BGC C   4      18.510   4.808   4.4190  0.00  0.00     0.000 C
ATOM     47  C3  BGC C   4      17.116   4.917   3.7880  0.00  0.00     0.000 C
ATOM     48  C4  BGC C   4      16.357   6.222   3.9290  0.00  0.00     0.000 C
ATOM     49  C5  BGC C   4      17.257   7.309   3.3190  0.00  0.00     0.000 C
ATOM     50  O5  BGC C   4      18.503   7.319   3.9230  0.00  0.00     0.000 O
ATOM     51   O  BGC C   4      19.024   3.378   4.1670  0.00  0.00     0.000 O
ATOM     53  HD  BGC C   4      18.458   2.784   4.4450  0.00  0.00     0.000 HD
ATOM     53   O  BGC C   4      16.363   3.954   4.6630  0.00  0.00     0.000 O
ATOM     55  HD  BGC C   4      15.797   3.360   4.9420  0.00  0.00     0.000 HD
ATOM     55   C  BGC C   4      16.686   8.684   3.5450  0.00  0.00     0.000 C
ATOM     56   O  BGC C   4      16.430   9.032   4.9110  0.00  0.00     0.000 O
ATOM     58  HD  BGC C   4      15.864   8.438   5.1890  0.00  0.00     0.000 HD
BRANCH 45 58
ATOM     58  O4  BGC C   5      20.443   6.324   4.4870  0.00  0.00     0.000 O
BRANCH 58 62
ATOM     59  C1  BGC C   5      22.424   4.160   3.6240  0.00  0.00     0.000 C
ATOM     60  C2  BGC C   5      23.149   5.050   4.5040  0.00  0.00     0.000 C
ATOM     61  C3  BGC C   5      22.901   6.529   4.2190  0.00  0.00     0.000 C
ATOM     62  C4  BGC C   5      21.523   6.687   3.5920  0.00  0.00     0.000 C
ATOM     63  C5  BGC C   5      21.387   5.615   2.5350  0.00  0.00     0.000 C
ATOM     64  O5  BGC C   5      22.315   4.532   2.5460  0.00  0.00     0.000 O
ATOM     65   O  BGC C   5      22.585   6.828   0.8230  0.00  0.00     0.000 O
ATOM     67  HD  BGC C   5      21.816   6.634   1.1720  0.00  0.00     0.000 HD
ATOM     67   O  BGC C   5      22.585   6.828   0.8230  0.00  0.00     0.000 O
ATOM     69  HD  BGC C   5      21.816   6.634   1.1720  0.00  0.00     0.000 HD
ENDBRANCH 58 62
ENDBRANCH 45 58
ENDBRANCH 44 48
ENDBRANCH 31 44
ENDBRANCH 30 34
ENDBRANCH 17 30
ENDBRANCH 16 20
ENDBRANCH 1 16
TORSDOF 8
ENDMDL
MODEL 4
REMARK VINA RESULT:      -4.7      2.846     14.696
ROOT
ATOM      1  C1  BGC C   1      19.309   7.795   3.3750  0.00  0.00     0.000 C
ATOM      2  C2  BGC C   1      19.982   9.001   4.0280  0.00  0.00     0.000 C
ATOM      3  C3  BGC C   1      21.321   9.279   3.3560  0.00  0.00     0.000 C
ATOM      4  C4  BGC C   1      22.186   8.033   3.2590  0.00  0.00     0.000 C
ATOM      5  C5  BGC C   1      21.362   6.858   2.7410  0.00  0.00     0.000 C
ATOM      6  O5  BGC C   1      20.140   6.698   3.3890  0.00  0.00     0.000 O
ATOM      7   O  BGC C   1      19.119  10.102   3.8730  0.00  0.00     0.000 O
ATOM      9  HD  BGC C   1      19.767  10.034   4.4430  0.00  0.00     0.000 HD
ATOM      9   O  BGC C   1      21.974  10.330   4.0820  0.00  0.00     0.000 O
ATOM     11  HD  BGC C   1      22.622  10.261   4.6520  0.00  0.00     0.000 HD
ATOM     11   O  BGC C   1      23.254   8.341   2.3700  0.00  0.00     0.000 O
ATOM     13  HD  BGC C   1      23.902   8.273   2.9400  0.00  0.00     0.000 HD
ATOM     13   O  BGC C   1      22.348   5.238   4.3340  0.00  0.00     0.000 O
ATOM     15  HD  BGC C   1      22.996   5.169   4.9040  0.00  0.00     0.000 HD
ATOM     15   C  BGC C   1      22.189   5.573   2.9280  0.00  0.00     0.000 C
ENDROOT
BRANCH 1 16
ATOM     16  O4  BGC C   2      18.167   7.455   4.1250  0.00  0.00     0.000 O
BRANCH 16 20
ATOM     17  C1  BGC C   2      14.414   5.975   3.4910  0.00  0.00     0.000 C
ATOM     18  C2  BGC C   2      15.563   5.023   3.1950  0.00  0.00     0.000 C
ATOM     19  C3  BGC C   2      16.860   5.538   3.8030  0.00  0.00     0.000 C
ATOM     20  C4  BGC C   2      17.081   6.952   3.3830  0.00  0.00     0.000 C
ATOM     21  C5  BGC C   2      15.844   7.804   3.6520  0.00  0.00     0.000 C
ATOM     22  O5  BGC C   2      14.719   7.260   3.0300  0.00  0.00     0.000 O
ATOM     23   O  BGC C   2      15.240   3.729   3.7250  0.00  0.00     0.000 O
ATOM     25  HD  BGC C   2      15.941   3.373   4.0870  0.00  0.00     0.000 HD
ATOM     25   O  BGC C   2      17.940   4.728   3.3540  0.00  0.00     0.000 O
ATOM     27  HD  BGC C   2      18.641   4.372   3.7160  0.00  0.00     0.000 HD
ATOM     27   C  BGC C   2      15.974   9.283   3.2300  0.00  0.00     0.000 C
ATOM     28   O  BGC C   2      16.361   9.399   1.8520  0.00  0.00     0.000 O
ATOM     30  HD  BGC C   2      17.062   9.043   2.2140  0.00  0.00     0.000 HD
BRANCH 17 30
ATOM     30  O4  BGC C   3      13.253   5.524   2.8270  0.00  0.00     0.000 O
BRANCH 30 34
ATOM     31  C1  BGC C   3       9.233   5.596   3.2470  0.00  0.00     0.000 C
ATOM     32  C2  BGC C   3       9.839   6.733   2.3890  0.00  0.00     0.000 C
ATOM     33  C3  BGC C   3      11.247   6.429   2.0090  0.00  0.00     0.000 C
ATOM     34  C4  BGC C   3      12.021   6.066   3.2790  0.00  0.00     0.000 C
ATOM     35  C5  BGC C   3      11.309   5.013   4.1660  0.00  0.00     0.000 C
ATOM     36  O5  BGC C   3       9.985   5.412   4.4210  0.00  0.00     0.000 O
ATOM     37   O  BGC C   3       9.172   7.102   1.1960  0.00  0.00     0.000 O
ATOM     39  HD  BGC C   3       9.936   6.979   1.5860  0.00  0.00     0.000 HD
ATOM     39   O  BGC C   3      11.846   7.576   1.3370  0.00  0.00     0.000 O
ATOM     41  HD  BGC C   3      12.609   7.453   1.7270  0.00  0.00     0.000 HD
ATOM     41   C  BGC C   3      11.970   4.758   5.5400  0.00  0.00     0.000 C
ATOM     42   O  BGC C   3      11.976   5.911   6.4570  0.00  0.00     0.000 O
ATOM     44  HD  BGC C   3      12.740   5.788   6.8460  0.00  0.00     0.000 HD
BRANCH 31 44
ATOM     44  O4  BGC C   4       7.920   5.883   3.5970  0.00  0.00     0.000 O
BRANCH 44 48
ATOM     45  C1  BGC C   4       4.260   4.173   4.2590  0.00  0.00     0.000 C
ATOM     46  C2  BGC C   4       5.406   3.331   4.9050  0.00  0.00     0.000 C
ATOM     47  C3  BGC C   4       6.599   4.291   4.8080  0.00  0.00     0.000 C
ATOM     48  C4  BGC C   4       6.914   4.923   3.4660  0.00  0.00     0.000 C
ATOM     49  C5  BGC C   4       5.644   5.676   3.0400  0.00  0.00     0.000 C
ATOM     50  O5  BGC C   4       4.548   4.830   3.0150  0.00  0.00     0.000 O
ATOM     51   O  BGC C   4       5.348   2.807   6.3510  0.00  0.00     0.000 O
ATOM     53  HD  BGC C   4       6.104   2.462   6.5950  0.00  0.00     0.000 HD
ATOM     53   O  BGC C   4       7.727   3.321   5.0340  0.00  0.00     0.000 O
ATOM     55  HD  BGC C   4       8.483   2.977   5.2780  0.00  0.00     0.000 HD
ATOM     55   C  BGC C   4       5.770   6.215   1.6380  0.00  0.00     0.000 C
ATOM     56   O  BGC C   4       6.076   5.248   0.6270  0.00  0.00     0.000 O
ATOM     58  HD  BGC C   4       6.832   4.903   0.8710  0.00  0.00     0.000 HD
BRANCH 45 58
ATOM     58  O4  BGC C   5       3.116   3.408   4.0160  0.00  0.00     0.000 O
BRANCH 58 62
ATOM     59  C1  BGC C   5       1.527   1.028   2.9390  0.00  0.00     0.000 C
ATOM     60  C2  BGC C   5       2.806   1.005   2.2630  0.00  0.00     0.000 C
ATOM     61  C3  BGC C   5       3.261   2.374   1.7650  0.00  0.00     0.000 C
ATOM     62  C4  BGC C   5       2.643   3.450   2.6470  0.00  0.00     0.000 C
ATOM     63  C5  BGC C   5       1.188   3.091   2.8400  0.00  0.00     0.000 C
ATOM     64  O5  BGC C   5       0.768   1.769   2.5070  0.00  0.00     0.000 O
ATOM     65   O  BGC C   5       0.441   4.024   0.7410  0.00  0.00     0.000 O
ATOM     67  HD  BGC C   5       0.561   4.151   1.5890  0.00  0.00     0.000 HD
ATOM     67   O  BGC C   5       0.441   4.024   0.7410  0.00  0.00     0.000 O
ATOM     69  HD  BGC C   5       0.561   4.151   1.5890  0.00  0.00     0.000 HD
ENDBRANCH 58 62
ENDBRANCH 45 58
ENDBRANCH 44 48
ENDBRANCH 31 44
ENDBRANCH 30 34
ENDBRANCH 17 30
ENDBRANCH 16 20
ENDBRANCH 1 16
TORSDOF 8
ENDMDL
MODEL 5
REMARK VINA RESULT:      -4.4      2.311     14.787
ROOT
ATOM      1  C1  BGC C   1      23.263   3.597   4.8810  0.00  0.00     0.000 C
ATOM      2  C2  BGC C   1      24.342   4.452   5.5450  0.00  0.00     0.000 C
ATOM      3  C3  BGC C   1      25.718   4.048   5.0300  0.00  0.00     0.000 C
ATOM      4  C4  BGC C   1      25.944   2.547   5.1100  0.00  0.00     0.000 C
ATOM      5  C5  BGC C   1      24.733   1.801   4.5590  0.00  0.00     0.000 C
ATOM      6  O5  BGC C   1      23.516   2.257   5.0590  0.00  0.00     0.000 O
ATOM      7   O  BGC C   1      24.074   5.796   5.2240  0.00  0.00     0.000 O
ATOM      9  HD  BGC C   1      24.573   5.512   5.8730  0.00  0.00     0.000 HD
ATOM      9   O  BGC C   1      26.703   4.780   5.7720  0.00  0.00     0.000 O
ATOM     11  HD  BGC C   1      27.202   4.496   6.4210  0.00  0.00     0.000 HD
ATOM     11   O  BGC C   1      27.111   2.266   4.3440  0.00  0.00     0.000 O
ATOM     13  HD  BGC C   1      27.609   1.982   4.9930  0.00  0.00     0.000 HD
ATOM     13   O  BGC C   1      24.755   0.089   6.3500  0.00  0.00     0.000 O
ATOM     15  HD  BGC C   1      25.254  -0.195   6.9980  0.00  0.00     0.000 HD
ATOM     15   C  BGC C   1      24.884   0.311   4.9180  0.00  0.00     0.000 C
ENDROOT
BRANCH 1 16
ATOM     16  O4  BGC C   2      22.028   3.869   5.5020  0.00  0.00     0.000 O
BRANCH 16 20
ATOM     17  C1  BGC C   2      18.080   3.983   4.4650  0.00  0.00     0.000 C
ATOM     18  C2  BGC C   2      18.638   2.611   4.8080  0.00  0.00     0.000 C
ATOM     19  C3  BGC C   2      19.979   2.735   5.5170  0.00  0.00     0.000 C
ATOM     20  C4  BGC C   2      20.887   3.609   4.7200  0.00  0.00     0.000 C
ATOM     21  C5  BGC C   2      20.205   4.927   4.3640  0.00  0.00     0.000 C
ATOM     22  O5  BGC C   2      19.001   4.701   3.6950  0.00  0.00     0.000 O
ATOM     23   O  BGC C   2      17.692   1.920   5.6390  0.00  0.00     0.000 O
ATOM     25  HD  BGC C   2      18.107   1.489   6.2660  0.00  0.00     0.000 HD
ATOM     25   O  BGC C   2      20.555   1.442   5.6570  0.00  0.00     0.000 O
ATOM     27  HD  BGC C   2      20.969   1.010   6.2830  0.00  0.00     0.000 HD
ATOM     27   C  BGC C   2      21.064   5.892   3.5200  0.00  0.00     0.000 C
ATOM     28   O  BGC C   2      21.548   5.251   2.3290  0.00  0.00     0.000 O
ATOM     30  HD  BGC C   2      21.962   4.820   2.9550  0.00  0.00     0.000 HD
BRANCH 17 30
ATOM     30  O4  BGC C   3      16.892   3.829   3.7180  0.00  0.00     0.000 O
BRANCH 30 34
ATOM     31  C1  BGC C   3      13.210   5.430   3.2510  0.00  0.00     0.000 C
ATOM     32  C2  BGC C   3      14.395   6.360   2.9000  0.00  0.00     0.000 C
ATOM     33  C3  BGC C   3      15.663   5.591   2.7680  0.00  0.00     0.000 C
ATOM     34  C4  BGC C   3      15.838   4.731   4.0230  0.00  0.00     0.000 C
ATOM     35  C5  BGC C   3      14.577   3.913   4.4010  0.00  0.00     0.000 C
ATOM     36  O5  BGC C   3      13.454   4.756   4.4620  0.00  0.00     0.000 O
ATOM     37   O  BGC C   3      14.294   7.169   1.7430  0.00  0.00     0.000 O
ATOM     39  HD  BGC C   3      14.812   6.684   2.2400  0.00  0.00     0.000 HD
ATOM     39   O  BGC C   3      16.789   6.501   2.5930  0.00  0.00     0.000 O
ATOM     41  HD  BGC C   3      17.307   6.016   3.0900  0.00  0.00     0.000 HD
ATOM     41   C  BGC C   3      14.656   3.177   5.7590  0.00  0.00     0.000 C
ATOM     42   O  BGC C   3      14.764   4.050   6.9400  0.00  0.00     0.000 O
ATOM     44  HD  BGC C   3      15.282   3.565   7.4360  0.00  0.00     0.000 HD
BRANCH 31 44
ATOM     44  O4  BGC C   4      12.029   6.151   3.3720  0.00  0.00     0.000 O
BRANCH 44 48
ATOM     45  C1  BGC C   4       8.023   6.160   2.5270  0.00  0.00     0.000 C
ATOM     46  C2  BGC C   4       8.353   5.196   3.7110  0.00  0.00     0.000 C
ATOM     47  C3  BGC C   4       9.799   5.585   4.0440  0.00  0.00     0.000 C
ATOM     48  C4  BGC C   4      10.815   5.627   2.9200  0.00  0.00     0.000 C
ATOM     49  C5  BGC C   4      10.268   6.623   1.8850  0.00  0.00     0.000 C
ATOM     50  O5  BGC C   4       8.995   6.263   1.4740  0.00  0.00     0.000 O
ATOM     51   O  BGC C   4       7.559   5.188   5.0300  0.00  0.00     0.000 O
ATOM     53  HD  BGC C   4       7.936   4.684   5.6240  0.00  0.00     0.000 HD
ATOM     53   O  BGC C   4      10.203   4.389   4.8630  0.00  0.00     0.000 O
ATOM     55  HD  BGC C   4      10.580   3.885   5.4580  0.00  0.00     0.000 HD
ATOM     55   C  BGC C   4      11.108   6.633   0.6350  0.00  0.00     0.000 C
ATOM     56   O  BGC C   4      11.275   5.365  -0.0110  0.00  0.00     0.000 O
ATOM     58  HD  BGC C   4      11.652   4.861   0.5840  0.00  0.00     0.000 HD
BRANCH 45 58
ATOM     58  O4  BGC C   5       6.826   5.824   1.8910  0.00  0.00     0.000 O
BRANCH 58 62
ATOM     59  C1  BGC C   5       4.080   5.141   0.7300  0.00  0.00     0.000 C
ATOM     60  C2  BGC C   5       4.439   6.438   0.1970  0.00  0.00     0.000 C
ATOM     61  C3  BGC C   5       5.015   7.391   1.2400  0.00  0.00     0.000 C
ATOM     62  C4  BGC C   5       5.672   6.575   2.3440  0.00  0.00     0.000 C
ATOM     63  C5  BGC C   5       4.724   5.452   2.6970  0.00  0.00     0.000 C
ATOM     64  O5  BGC C   5       3.659   5.158   1.7950  0.00  0.00     0.000 O
ATOM     65   O  BGC C   5       3.330   6.779   4.1570  0.00  0.00     0.000 O
ATOM     67  HD  BGC C   5       4.004   6.239   4.0910  0.00  0.00     0.000 HD
ATOM     67   O  BGC C   5       3.330   6.779   4.1570  0.00  0.00     0.000 O
ATOM     69  HD  BGC C   5       4.004   6.239   4.0910  0.00  0.00     0.000 HD
ENDBRANCH 58 62
ENDBRANCH 45 58
ENDBRANCH 44 48
ENDBRANCH 31 44
ENDBRANCH 30 34
ENDBRANCH 17 30
ENDBRANCH 16 20
ENDBRANCH 1 16
TORSDOF 8
ENDMDL
MODEL 6
REMARK VINA RESULT:      -4.4      1.794     14.448
ROOT
ATOM      1  C1  BGC C   1      20.885   5.594   5.1370  0.00  0.00     0.000 C
ATOM      2  C2  BGC C   1      21.962   5.560   4.0540  0.00  0.00     0.000 C
ATOM      3  C3  BGC C   1      23.330   5.333   4.6860  0.00  0.00     0.000 C
ATOM      4  C4  BGC C   1      23.600   6.292   5.8330  0.00  0.00     0.000 C
ATOM      5  C5  BGC C   1      22.391   6.357   6.7620  0.00  0.00     0.000 C
ATOM      6  O5  BGC C   1      21.181   6.534   6.0980  0.00  0.00     0.000 O
ATOM      7   O  BGC C   1      21.647   4.504   3.1770  0.00  0.00     0.000 O
ATOM      9  HD  BGC C   1      22.175   5.170   3.0110  0.00  0.00     0.000 HD
ATOM      9   O  BGC C   1      24.320   5.439   3.6540  0.00  0.00     0.000 O
ATOM     11  HD  BGC C   1      24.848   6.105   3.4880  0.00  0.00     0.000 HD
ATOM     11   O  BGC C   1      24.747   5.802   6.5190  0.00  0.00     0.000 O
ATOM     13  HD  BGC C   1      25.275   6.468   6.3530  0.00  0.00     0.000 HD
ATOM     13   O  BGC C   1      22.521   8.815   7.0450  0.00  0.00     0.000 O
ATOM     15  HD  BGC C   1      23.049   9.481   6.8790  0.00  0.00     0.000 HD
ATOM     15   C  BGC C   1      22.595   7.536   7.7320  0.00  0.00     0.000 C
ENDROOT
BRANCH 1 16
ATOM     16  O4  BGC C   2      19.665   5.978   4.5470  0.00  0.00     0.000 O
BRANCH 16 20
ATOM     17  C1  BGC C   2      15.689   5.191   5.0430  0.00  0.00     0.000 C
ATOM     18  C2  BGC C   2      16.269   6.274   5.9390  0.00  0.00     0.000 C
ATOM     19  C3  BGC C   2      17.628   6.729   5.4260  0.00  0.00     0.000 C
ATOM     20  C4  BGC C   2      18.505   5.541   5.2140  0.00  0.00     0.000 C
ATOM     21  C5  BGC C   2      17.801   4.484   4.3680  0.00  0.00     0.000 C
ATOM     22  O5  BGC C   2      16.581   4.119   4.9400  0.00  0.00     0.000 O
ATOM     23   O  BGC C   2      15.354   7.379   5.9820  0.00  0.00     0.000 O
ATOM     25  HD  BGC C   2      15.789   8.127   5.9540  0.00  0.00     0.000 HD
ATOM     25   O  BGC C   2      18.220   7.601   6.3810  0.00  0.00     0.000 O
ATOM     27  HD  BGC C   2      18.656   8.349   6.3530  0.00  0.00     0.000 HD
ATOM     27   C  BGC C   2      18.627   3.206   4.1130  0.00  0.00     0.000 C
ATOM     28   O  BGC C   2      19.084   2.626   5.3450  0.00  0.00     0.000 O
ATOM     30  HD  BGC C   2      19.520   3.374   5.3170  0.00  0.00     0.000 HD
BRANCH 17 30
ATOM     30  O4  BGC C   3      14.482   4.720   5.6040  0.00  0.00     0.000 O
BRANCH 30 34
ATOM     31  C1  BGC C   3      10.774   3.517   4.5380  0.00  0.00     0.000 C
ATOM     32  C2  BGC C   3      11.891   2.458   4.3890  0.00  0.00     0.000 C
ATOM     33  C3  BGC C   3      13.123   2.868   5.1180  0.00  0.00     0.000 C
ATOM     34  C4  BGC C   3      13.489   4.290   4.6850  0.00  0.00     0.000 C
ATOM     35  C5  BGC C   3      12.301   5.284   4.7350  0.00  0.00     0.000 C
ATOM     36  O5  BGC C   3      11.201   4.759   4.0340  0.00  0.00     0.000 O
ATOM     37   O  BGC C   3      11.613   1.128   4.7850  0.00  0.00     0.000 O
ATOM     39  HD  BGC C   3      12.201   1.763   4.7570  0.00  0.00     0.000 HD
ATOM     39   O  BGC C   3      14.209   1.936   4.8360  0.00  0.00     0.000 O
ATOM     41  HD  BGC C   3      14.797   2.571   4.8080  0.00  0.00     0.000 HD
ATOM     41   C  BGC C   3      12.588   6.679   4.1340  0.00  0.00     0.000 C
ATOM     42   O  BGC C   3      12.878   6.692   2.6900  0.00  0.00     0.000 O
ATOM     44  HD  BGC C   3      13.467   7.327   2.6620  0.00  0.00     0.000 HD
BRANCH 31 44
ATOM     44  O4  BGC C   4       9.626   3.131   3.8580  0.00  0.00     0.000 O
BRANCH 44 48
ATOM     45  C1  BGC C   4       5.536   3.059   4.0200  0.00  0.00     0.000 C
ATOM     46  C2  BGC C   4       6.089   4.503   4.2430  0.00  0.00     0.000 C
ATOM     47  C3  BGC C   4       7.560   4.346   3.8360  0.00  0.00     0.000 C
ATOM     48  C4  BGC C   4       8.368   3.222   4.4570  0.00  0.00     0.000 C
ATOM     49  C5  BGC C   4       7.624   1.921   4.1140  0.00  0.00     0.000 C
ATOM     50  O5  BGC C   4       6.310   1.970   4.5480  0.00  0.00     0.000 O
ATOM     51   O  BGC C   4       5.533   5.735   3.5070  0.00  0.00     0.000 O
ATOM     53  HD  BGC C   4       6.020   6.437   3.6500  0.00  0.00     0.000 HD
ATOM     53   O  BGC C   4       8.130   5.595   4.4520  0.00  0.00     0.000 O
ATOM     55  HD  BGC C   4       8.617   6.296   4.5950  0.00  0.00     0.000 HD
ATOM     55   C  BGC C   4       8.238   0.737   4.8150  0.00  0.00     0.000 C
ATOM     56   O  BGC C   4       8.325   0.839   6.2410  0.00  0.00     0.000 O
ATOM     58  HD  BGC C   4       8.812   1.541   6.3850  0.00  0.00     0.000 HD
BRANCH 45 58
ATOM     58  O4  BGC C   5       4.257   2.896   4.5570  0.00  0.00     0.000 O
BRANCH 58 62
ATOM     59  C1  BGC C   5       1.325   3.762   4.6340  0.00  0.00     0.000 C
ATOM     60  C2  BGC C   5       1.375   2.436   5.2100  0.00  0.00     0.000 C
ATOM     61  C3  BGC C   5       2.240   1.457   4.4200  0.00  0.00     0.000 C
ATOM     62  C4  BGC C   5       3.313   2.238   3.6760  0.00  0.00     0.000 C
ATOM     63  C5  BGC C   5       2.640   3.432   3.0400  0.00  0.00     0.000 C
ATOM     64  O5  BGC C   5       1.334   3.790   3.4890  0.00  0.00     0.000 O
ATOM     65   O  BGC C   5       1.815   2.231   1.1130  0.00  0.00     0.000 O
ATOM     67  HD  BGC C   5       2.448   2.719   1.4470  0.00  0.00     0.000 HD
ATOM     67   O  BGC C   5       1.815   2.231   1.1130  0.00  0.00     0.000 O
ATOM     69  HD  BGC C   5       2.448   2.719   1.4470  0.00  0.00     0.000 HD
ENDBRANCH 58 62
ENDBRANCH 45 58
ENDBRANCH 44 48
ENDBRANCH 31 44
ENDBRANCH 30 34
ENDBRANCH 17 30
ENDBRANCH 16 20
ENDBRANCH 1 16
TORSDOF 8
ENDMDL
MODEL 7
REMARK VINA RESULT:      -4.2      3.064      6.176
ROOT
ATOM      1  C1  BGC C   1      10.401   2.606   4.9910  0.00  0.00     0.000 C
ATOM      2  C2  BGC C   1       9.851   1.356   4.3050  0.00  0.00     0.000 C
ATOM      3  C3  BGC C   1       8.328   1.372   4.3350  0.00  0.00     0.000 C
ATOM      4  C4  BGC C   1       7.783   1.635   5.7290  0.00  0.00     0.000 C
ATOM      5  C5  BGC C   1       8.517   2.809   6.3710  0.00  0.00     0.000 C
ATOM      6  O5  BGC C   1       9.903   2.728   6.2680  0.00  0.00     0.000 O
ATOM      7   O  BGC C   1      10.315   1.365   2.9760  0.00  0.00     0.000 O
ATOM      9  HD  BGC C   1      10.010   0.680   3.4100  0.00  0.00     0.000 HD
ATOM      9   O  BGC C   1       7.860   0.126   3.8020  0.00  0.00     0.000 O
ATOM     11  HD  BGC C   1       7.555  -0.559   4.2360  0.00  0.00     0.000 HD
ATOM     11   O  BGC C   1       6.395   1.918   5.5820  0.00  0.00     0.000 O
ATOM     13  HD  BGC C   1       6.091   1.233   6.0160  0.00  0.00     0.000 HD
ATOM     13   O  BGC C   1       8.682   1.719   8.5890  0.00  0.00     0.000 O
ATOM     15  HD  BGC C   1       8.377   1.034   9.0230  0.00  0.00     0.000 HD
ATOM     15   C  BGC C   1       8.137   2.855   7.8620  0.00  0.00     0.000 C
ENDROOT
BRANCH 1 16
ATOM     16  O4  BGC C   2      11.799   2.480   5.1040  0.00  0.00     0.000 O
BRANCH 16 20
ATOM     17  C1  BGC C   2      15.057   4.942   5.0970  0.00  0.00     0.000 C
ATOM     18  C2  BGC C   2      14.374   4.747   6.4410  0.00  0.00     0.000 C
ATOM     19  C3  BGC C   2      13.428   3.556   6.3990  0.00  0.00     0.000 C
ATOM     20  C4  BGC C   2      12.509   3.689   5.2310  0.00  0.00     0.000 C
ATOM     21  C5  BGC C   2      13.288   3.957   3.9480  0.00  0.00     0.000 C
ATOM     22  O5  BGC C   2      14.102   5.083   4.0850  0.00  0.00     0.000 O
ATOM     23   O  BGC C   2      15.378   4.555   7.4490  0.00  0.00     0.000 O
ATOM     25  HD  BGC C   2      15.128   3.939   8.0040  0.00  0.00     0.000 HD
ATOM     25   O  BGC C   2      12.673   3.515   7.6040  0.00  0.00     0.000 O
ATOM     27  HD  BGC C   2      12.422   2.900   8.1600  0.00  0.00     0.000 HD
ATOM     27   C  BGC C   2      12.417   4.129   2.6860  0.00  0.00     0.000 C
ATOM     28   O  BGC C   2      11.420   5.146   2.8770  0.00  0.00     0.000 O
ATOM     30  HD  BGC C   2      11.169   4.530   3.4330  0.00  0.00     0.000 HD
BRANCH 17 30
ATOM     30  O4  BGC C   3      15.844   6.113   5.1400  0.00  0.00     0.000 O
BRANCH 30 34
ATOM     31  C1  BGC C   3      19.339   7.450   3.6110  0.00  0.00     0.000 C
ATOM     32  C2  BGC C   3      18.058   7.981   2.9230  0.00  0.00     0.000 C
ATOM     33  C3  BGC C   3      16.852   7.720   3.7550  0.00  0.00     0.000 C
ATOM     34  C4  BGC C   3      16.839   6.237   4.1350  0.00  0.00     0.000 C
ATOM     35  C5  BGC C   3      18.188   5.726   4.7040  0.00  0.00     0.000 C
ATOM     36  O5  BGC C   3      19.239   6.065   3.8350  0.00  0.00     0.000 O
ATOM     37   O  BGC C   3      18.008   9.349   2.5610  0.00  0.00     0.000 O
ATOM     39  HD  BGC C   3      17.569   8.669   2.8700  0.00  0.00     0.000 HD
ATOM     39   O  BGC C   3      15.645   8.085   3.0230  0.00  0.00     0.000 O
ATOM     41  HD  BGC C   3      15.206   7.406   3.3310  0.00  0.00     0.000 HD
ATOM     41   C  BGC C   3      18.269   4.198   4.9260  0.00  0.00     0.000 C
ATOM     42   O  BGC C   3      18.174   3.380   3.7050  0.00  0.00     0.000 O
ATOM     44  HD  BGC C   3      17.735   2.701   4.0140  0.00  0.00     0.000 HD
BRANCH 31 44
ATOM     44  O4  BGC C   4      20.462   7.697   2.8320  0.00  0.00     0.000 O
BRANCH 44 48
ATOM     45  C1  BGC C   4      24.542   7.393   2.6930  0.00  0.00     0.000 C
ATOM     46  C2  BGC C   4      23.857   6.044   2.3020  0.00  0.00     0.000 C
ATOM     47  C3  BGC C   4      22.394   6.471   2.1210  0.00  0.00     0.000 C
ATOM     48  C4  BGC C   4      21.726   7.258   3.2310  0.00  0.00     0.000 C
ATOM     49  C5  BGC C   4      22.582   8.518   3.4370  0.00  0.00     0.000 C
ATOM     50  O5  BGC C   4      23.900   8.187   3.7030  0.00  0.00     0.000 O
ATOM     51   O  BGC C   4      24.260   5.229   1.0600  0.00  0.00     0.000 O
ATOM     53  HD  BGC C   4      23.712   4.574   0.9180  0.00  0.00     0.000 HD
ATOM     53   O  BGC C   4      21.727   5.124   2.1680  0.00  0.00     0.000 O
ATOM     55  HD  BGC C   4      21.179   4.469   2.0270  0.00  0.00     0.000 HD
ATOM     55   C  BGC C   4      22.115   9.309   4.6310  0.00  0.00     0.000 C
ATOM     56   O  BGC C   4      22.071   8.593   5.8710  0.00  0.00     0.000 O
ATOM     58  HD  BGC C   4      21.523   7.937   5.7290  0.00  0.00     0.000 HD
BRANCH 45 58
ATOM     58  O4  BGC C   5      25.850   7.207   3.1460  0.00  0.00     0.000 O
BRANCH 58 62
ATOM     59  C1  BGC C   5      28.532   6.855   4.5720  0.00  0.00     0.000 C
ATOM     60  C2  BGC C   5      28.458   5.808   3.5750  0.00  0.00     0.000 C
ATOM     61  C3  BGC C   5      27.106   5.102   3.5280  0.00  0.00     0.000 C
ATOM     62  C4  BGC C   5      26.031   6.063   4.0150  0.00  0.00     0.000 C
ATOM     63  C5  BGC C   5      26.560   6.734   5.2610  0.00  0.00     0.000 C
ATOM     64  O5  BGC C   5      27.956   6.641   5.5380  0.00  0.00     0.000 O
ATOM     65   O  BGC C   5      25.985   4.928   6.7580  0.00  0.00     0.000 O
ATOM     67  HD  BGC C   5      25.746   5.683   6.4070  0.00  0.00     0.000 HD
ATOM     67   O  BGC C   5      25.985   4.928   6.7580  0.00  0.00     0.000 O
ATOM     69  HD  BGC C   5      25.746   5.683   6.4070  0.00  0.00     0.000 HD
ENDBRANCH 58 62
ENDBRANCH 45 58
ENDBRANCH 44 48
ENDBRANCH 31 44
ENDBRANCH 30 34
ENDBRANCH 17 30
ENDBRANCH 16 20
ENDBRANCH 1 16
TORSDOF 8
ENDMDL
MODEL 8
REMARK VINA RESULT:      -4.2      2.791      6.339
ROOT
ATOM      1  C1  BGC C   1      10.509   1.858   5.3460  0.00  0.00     0.000 C
ATOM      2  C2  BGC C   1       9.586   1.134   4.3660  0.00  0.00     0.000 C
ATOM      3  C3  BGC C   1       8.150   1.609   4.5540  0.00  0.00     0.000 C
ATOM      4  C4  BGC C   1       7.713   1.558   6.0090  0.00  0.00     0.000 C
ATOM      5  C5  BGC C   1       8.786   2.170   6.9040  0.00  0.00     0.000 C
ATOM      6  O5  BGC C   1      10.071   1.703   6.6410  0.00  0.00     0.000 O
ATOM      7   O  BGC C   1      10.033   1.433   3.0650  0.00  0.00     0.000 O
ATOM      9  HD  BGC C   1       9.520   0.773   3.2930  0.00  0.00     0.000 HD
ATOM      9   O  BGC C   1       7.305   0.814   3.7110  0.00  0.00     0.000 O
ATOM     11  HD  BGC C   1       6.792   0.155   3.9400  0.00  0.00     0.000 HD
ATOM     11   O  BGC C   1       6.494   2.287   6.0980  0.00  0.00     0.000 O
ATOM     13  HD  BGC C   1       5.981   1.628   6.3270  0.00  0.00     0.000 HD
ATOM     13   O  BGC C   1       8.577   0.422   8.6470  0.00  0.00     0.000 O
ATOM     15  HD  BGC C   1       8.064  -0.238   8.8760  0.00  0.00     0.000 HD
ATOM     15   C  BGC C   1       8.435   1.842   8.3670  0.00  0.00     0.000 C
ENDROOT
BRANCH 1 16
ATOM     16  O4  BGC C   2      11.789   1.276   5.2710  0.00  0.00     0.000 O
BRANCH 16 20
ATOM     17  C1  BGC C   2      15.681   2.428   5.7190  0.00  0.00     0.000 C
ATOM     18  C2  BGC C   2      14.915   2.161   7.0050  0.00  0.00     0.000 C
ATOM     19  C3  BGC C   2      13.627   1.403   6.7180  0.00  0.00     0.000 C
ATOM     20  C4  BGC C   2      12.857   2.110   5.6540  0.00  0.00     0.000 C
ATOM     21  C5  BGC C   2      13.736   2.397   4.4400  0.00  0.00     0.000 C
ATOM     22  O5  BGC C   2      14.874   3.118   4.8080  0.00  0.00     0.000 O
ATOM     23   O  BGC C   2      15.753   1.409   7.8960  0.00  0.00     0.000 O
ATOM     25  HD  BGC C   2      15.287   0.801   8.2980  0.00  0.00     0.000 HD
ATOM     25   O  BGC C   2      12.851   1.333   7.9080  0.00  0.00     0.000 O
ATOM     27  HD  BGC C   2      12.385   0.724   8.3110  0.00  0.00     0.000 HD
ATOM     27   C  BGC C   2      13.028   3.146   3.2930  0.00  0.00     0.000 C
ATOM     28   O  BGC C   2      12.422   4.362   3.7600  0.00  0.00     0.000 O
ATOM     30  HD  BGC C   2      11.956   3.753   4.1630  0.00  0.00     0.000 HD
BRANCH 17 30
ATOM     30  O4  BGC C   3      16.813   3.222   6.0070  0.00  0.00     0.000 O
BRANCH 30 34
ATOM     31  C1  BGC C   3      20.669   3.683   4.8860  0.00  0.00     0.000 C
ATOM     32  C2  BGC C   3      19.630   4.473   4.0560  0.00  0.00     0.000 C
ATOM     33  C3  BGC C   3      18.310   4.517   4.7450  0.00  0.00     0.000 C
ATOM     34  C4  BGC C   3      17.915   3.087   5.1230  0.00  0.00     0.000 C
ATOM     35  C5  BGC C   3      19.038   2.298   5.8430  0.00  0.00     0.000 C
ATOM     36  O5  BGC C   3      20.229   2.364   5.1000  0.00  0.00     0.000 O
ATOM     37   O  BGC C   3      19.936   5.805   3.6880  0.00  0.00     0.000 O
ATOM     39  HD  BGC C   3      19.320   5.252   3.9460  0.00  0.00     0.000 HD
ATOM     39   O  BGC C   3      17.309   5.128   3.8780  0.00  0.00     0.000 O
ATOM     41  HD  BGC C   3      16.694   4.575   4.1350  0.00  0.00     0.000 HD
ATOM     41   C  BGC C   3      18.740   0.799   6.0760  0.00  0.00     0.000 C
ATOM     42   O  BGC C   3      18.597  -0.009   4.8530  0.00  0.00     0.000 O
ATOM     44  HD  BGC C   3      17.982  -0.562   5.1110  0.00  0.00     0.000 HD
BRANCH 31 44
ATOM     44  O4  BGC C   4      21.898   3.645   4.2410  0.00  0.00     0.000 O
BRANCH 44 48
ATOM     45  C1  BGC C   4      25.932   3.242   4.8050  0.00  0.00     0.000 C
ATOM     46  C2  BGC C   4      25.225   1.851   4.7410  0.00  0.00     0.000 C
ATOM     47  C3  BGC C   4      23.830   2.227   4.2250  0.00  0.00     0.000 C
ATOM     48  C4  BGC C   4      23.067   3.328   4.9360  0.00  0.00     0.000 C
ATOM     49  C5  BGC C   4      23.963   4.575   4.8770  0.00  0.00     0.000 C
ATOM     50  O5  BGC C   4      25.210   4.319   5.4220  0.00  0.00     0.000 O
ATOM     51   O  BGC C   4      25.742   0.687   3.8750  0.00  0.00     0.000 O
ATOM     53  HD  BGC C   4      25.179   0.030   3.8580  0.00  0.00     0.000 HD
ATOM     53   O  BGC C   4      23.080   0.971   4.5770  0.00  0.00     0.000 O
ATOM     55  HD  BGC C   4      22.517   0.313   4.5600  0.00  0.00     0.000 HD
ATOM     55   C  BGC C   4      23.389   5.703   5.6950  0.00  0.00     0.000 C
ATOM     56   O  BGC C   4      23.133   5.402   7.0720  0.00  0.00     0.000 O
ATOM     58  HD  BGC C   4      22.570   4.744   7.0550  0.00  0.00     0.000 HD
BRANCH 45 58
ATOM     58  O4  BGC C   5      27.154   3.182   5.4800  0.00  0.00     0.000 O
BRANCH 58 62
ATOM     59  C1  BGC C   5      29.563   2.724   7.3070  0.00  0.00     0.000 C
ATOM     60  C2  BGC C   5      28.476   1.945   7.8600  0.00  0.00     0.000 C
ATOM     61  C3  BGC C   5      27.149   2.696   7.9130  0.00  0.00     0.000 C
ATOM     62  C4  BGC C   5      27.133   3.748   6.8140  0.00  0.00     0.000 C
ATOM     63  C5  BGC C   5      28.472   4.449   6.8440  0.00  0.00     0.000 C
ATOM     64  O5  BGC C   5      29.538   3.839   7.5690  0.00  0.00     0.000 O
ATOM     65   O  BGC C   5      27.902   5.955   8.6450  0.00  0.00     0.000 O
ATOM     67  HD  BGC C   5      27.944   5.831   7.7880  0.00  0.00     0.000 HD
ATOM     67   O  BGC C   5      27.902   5.955   8.6450  0.00  0.00     0.000 O
ATOM     69  HD  BGC C   5      27.944   5.831   7.7880  0.00  0.00     0.000 HD
ENDBRANCH 58 62
ENDBRANCH 45 58
ENDBRANCH 44 48
ENDBRANCH 31 44
ENDBRANCH 30 34
ENDBRANCH 17 30
ENDBRANCH 16 20
ENDBRANCH 1 16
TORSDOF 8
ENDMDL
MODEL 9
REMARK VINA RESULT:      -4.1      5.766      9.931
ROOT
ATOM      1  C1  BGC C   1      14.049   4.025   2.9520  0.00  0.00     0.000 C
ATOM      2  C2  BGC C   1      13.230   3.959   1.6640  0.00  0.00     0.000 C
ATOM      3  C3  BGC C   1      11.778   3.623   1.9850  0.00  0.00     0.000 C
ATOM      4  C4  BGC C   1      11.656   2.408   2.8890  0.00  0.00     0.000 C
ATOM      5  C5  BGC C   1      12.634   2.517   4.0560  0.00  0.00     0.000 C
ATOM      6  O5  BGC C   1      13.928   2.859   3.6730  0.00  0.00     0.000 O
ATOM      7   O  BGC C   1      13.314   5.220   1.0440  0.00  0.00     0.000 O
ATOM      9  HD  BGC C   1      13.081   4.476   0.6660  0.00  0.00     0.000 HD
ATOM      9   O  BGC C   1      11.079   3.443   0.7460  0.00  0.00     0.000 O
ATOM     11  HD  BGC C   1      10.846   2.699   0.3680  0.00  0.00     0.000 HD
ATOM     11   O  BGC C   1      10.310   2.373   3.3520  0.00  0.00     0.000 O
ATOM     13  HD  BGC C   1      10.077   1.629   2.9740  0.00  0.00     0.000 HD
ATOM     13   O  BGC C   1      13.300   0.133   3.9470  0.00  0.00     0.000 O
ATOM     15  HD  BGC C   1      13.067  -0.610   3.5690  0.00  0.00     0.000 HD
ATOM     15   C  BGC C   1      12.678   1.156   4.7730  0.00  0.00     0.000 C
ENDROOT
BRANCH 1 16
ATOM     16  O4  BGC C   2      15.409   4.161   2.6140  0.00  0.00     0.000 O
BRANCH 16 20
ATOM     17  C1  BGC C   2      18.694   6.109   4.0590  0.00  0.00     0.000 C
ATOM     18  C2  BGC C   2      18.406   4.747   4.6720  0.00  0.00     0.000 C
ATOM     19  C3  BGC C   2      17.406   3.974   3.8230  0.00  0.00     0.000 C
ATOM     20  C4  BGC C   2      16.207   4.823   3.5660  0.00  0.00     0.000 C
ATOM     21  C5  BGC C   2      16.610   6.192   3.0260  0.00  0.00     0.000 C
ATOM     22  O5  BGC C   2      17.505   6.825   3.8900  0.00  0.00     0.000 O
ATOM     23   O  BGC C   2      19.638   4.019   4.7850  0.00  0.00     0.000 O
ATOM     25  HD  BGC C   2      19.512   3.189   4.5740  0.00  0.00     0.000 HD
ATOM     25   O  BGC C   2      17.021   2.792   4.5150  0.00  0.00     0.000 O
ATOM     27  HD  BGC C   2      16.896   1.962   4.3040  0.00  0.00     0.000 HD
ATOM     27   C  BGC C   2      15.433   7.149   2.7470  0.00  0.00     0.000 C
ATOM     28   O  BGC C   2      14.602   7.303   3.9090  0.00  0.00     0.000 O
ATOM     30  HD  BGC C   2      14.476   6.473   3.6980  0.00  0.00     0.000 HD
BRANCH 17 30
ATOM     30  O4  BGC C   3      19.540   6.838   4.9230  0.00  0.00     0.000 O
BRANCH 30 34
ATOM     31  C1  BGC C   3      22.795   9.227   4.7370  0.00  0.00     0.000 C
ATOM     32  C2  BGC C   3      21.430   9.955   4.7720  0.00  0.00     0.000 C
ATOM     33  C3  BGC C   3      20.337   9.031   5.1850  0.00  0.00     0.000 C
ATOM     34  C4  BGC C   3      20.405   7.780   4.3060  0.00  0.00     0.000 C
ATOM     35  C5  BGC C   3      21.823   7.162   4.2060  0.00  0.00     0.000 C
ATOM     36  O5  BGC C   3      22.755   8.147   3.8370  0.00  0.00     0.000 O
ATOM     37   O  BGC C   3      21.305  11.111   5.5780  0.00  0.00     0.000 O
ATOM     39  HD  BGC C   3      20.922  10.390   5.2890  0.00  0.00     0.000 HD
ATOM     39   O  BGC C   3      19.044   9.692   5.0600  0.00  0.00     0.000 O
ATOM     41  HD  BGC C   3      18.661   8.972   4.7710  0.00  0.00     0.000 HD
ATOM     41   C  BGC C   3      21.965   6.009   3.1850  0.00  0.00     0.000 C
ATOM     42   O  BGC C   3      21.745   6.386   1.7790  0.00  0.00     0.000 O
ATOM     44  HD  BGC C   3      21.362   5.666   1.4890  0.00  0.00     0.000 HD
BRANCH 31 44
ATOM     44  O4  BGC C   4      23.811  10.092   4.3520  0.00  0.00     0.000 O
BRANCH 44 48
ATOM     45  C1  BGC C   4      27.712  11.156   4.9890  0.00  0.00     0.000 C
ATOM     46  C2  BGC C   4      27.610   9.776   4.2630  0.00  0.00     0.000 C
ATOM     47  C3  BGC C   4      26.130   9.738   3.8610  0.00  0.00     0.000 C
ATOM     48  C4  BGC C   4      25.083  10.009   4.9230  0.00  0.00     0.000 C
ATOM     49  C5  BGC C   4      25.400  11.402   5.4910  0.00  0.00     0.000 C
ATOM     50  O5  BGC C   4      26.701  11.464   5.9600  0.00  0.00     0.000 O
ATOM     51   O  BGC C   4      28.439   9.423   3.0150  0.00  0.00     0.000 O
ATOM     53  HD  BGC C   4      28.184   8.673   2.6660  0.00  0.00     0.000 HD
ATOM     53   O  BGC C   4      25.984   8.271   3.5620  0.00  0.00     0.000 O
ATOM     55  HD  BGC C   4      25.728   7.521   3.2130  0.00  0.00     0.000 HD
ATOM     55   C  BGC C   4      24.526  11.723   6.6760  0.00  0.00     0.000 C
ATOM     56   O  BGC C   4      24.573  10.781   7.7540  0.00  0.00     0.000 O
ATOM     58  HD  BGC C   4      24.318  10.031   7.4050  0.00  0.00     0.000 HD
BRANCH 45 58
ATOM     58  O4  BGC C   5      28.928  11.309   5.6600  0.00  0.00     0.000 O
BRANCH 58 62
ATOM     59  C1  BGC C   5      31.127  11.888   3.6150  0.00  0.00     0.000 C
ATOM     60  C2  BGC C   5      31.759  11.922   4.9160  0.00  0.00     0.000 C
ATOM     61  C3  BGC C   5      30.963  12.696   5.9640  0.00  0.00     0.000 C
ATOM     62  C4  BGC C   5      29.486  12.645   5.5980  0.00  0.00     0.000 C
ATOM     63  C5  BGC C   5      29.381  12.927   4.1170  0.00  0.00     0.000 C
ATOM     64  O5  BGC C   5      30.565  12.843   3.3270  0.00  0.00     0.000 O
ATOM     65   O  BGC C   5      29.506  15.330   4.3320  0.00  0.00     0.000 O
ATOM     67  HD  BGC C   5      28.996  14.632   4.2730  0.00  0.00     0.000 HD
ATOM     67   O  BGC C   5      29.506  15.330   4.3320  0.00  0.00     0.000 O
ATOM     69  HD  BGC C   5      28.996  14.632   4.2730  0.00  0.00     0.000 HD
ENDBRANCH 58 62
ENDBRANCH 45 58
ENDBRANCH 44 48
ENDBRANCH 31 44
ENDBRANCH 30 34
ENDBRANCH 17 30
ENDBRANCH 16 20
ENDBRANCH 1 16
TORSDOF 8
ENDMDL
MODEL 10
REMARK VINA RESULT:      -4.1      5.414      9.821
ROOT
ATOM      1  C1  BGC C   1      14.046   4.024   2.9510  0.00  0.00     0.000 C
ATOM      2  C2  BGC C   1      13.227   3.957   1.6630  0.00  0.00     0.000 C
ATOM      3  C3  BGC C   1      11.776   3.620   1.9840  0.00  0.00     0.000 C
ATOM      4  C4  BGC C   1      11.654   2.406   2.8900  0.00  0.00     0.000 C
ATOM      5  C5  BGC C   1      12.632   2.516   4.0560  0.00  0.00     0.000 C
ATOM      6  O5  BGC C   1      13.926   2.859   3.6730  0.00  0.00     0.000 O
ATOM      7   O  BGC C   1      13.311   5.218   1.0420  0.00  0.00     0.000 O
ATOM      9  HD  BGC C   1      13.078   4.474   0.6650  0.00  0.00     0.000 HD
ATOM      9   O  BGC C   1      11.076   3.439   0.7460  0.00  0.00     0.000 O
ATOM     11  HD  BGC C   1      10.844   2.695   0.3690  0.00  0.00     0.000 HD
ATOM     11   O  BGC C   1      10.308   2.370   3.3520  0.00  0.00     0.000 O
ATOM     13  HD  BGC C   1      10.075   1.626   2.9750  0.00  0.00     0.000 HD
ATOM     13   O  BGC C   1      13.299   0.133   3.9490  0.00  0.00     0.000 O
ATOM     15  HD  BGC C   1      13.067  -0.611   3.5720  0.00  0.00     0.000 HD
ATOM     15   C  BGC C   1      12.676   1.156   4.7750  0.00  0.00     0.000 C
ENDROOT
BRANCH 1 16
ATOM     16  O4  BGC C   2      15.406   4.160   2.6130  0.00  0.00     0.000 O
BRANCH 16 20
ATOM     17  C1  BGC C   2      18.690   6.111   4.0570  0.00  0.00     0.000 C
ATOM     18  C2  BGC C   2      18.402   4.750   4.6710  0.00  0.00     0.000 C
ATOM     19  C3  BGC C   2      17.404   3.976   3.8230  0.00  0.00     0.000 C
ATOM     20  C4  BGC C   2      16.204   4.824   3.5650  0.00  0.00     0.000 C
ATOM     21  C5  BGC C   2      16.606   6.193   3.0240  0.00  0.00     0.000 C
ATOM     22  O5  BGC C   2      17.500   6.827   3.8880  0.00  0.00     0.000 O
ATOM     23   O  BGC C   2      19.635   4.023   4.7850  0.00  0.00     0.000 O
ATOM     25  HD  BGC C   2      19.510   3.192   4.5740  0.00  0.00     0.000 HD
ATOM     25   O  BGC C   2      17.018   2.795   4.5160  0.00  0.00     0.000 O
ATOM     27  HD  BGC C   2      16.894   1.964   4.3050  0.00  0.00     0.000 HD
ATOM     27   C  BGC C   2      15.428   7.149   2.7440  0.00  0.00     0.000 C
ATOM     28   O  BGC C   2      14.597   7.304   3.9060  0.00  0.00     0.000 O
ATOM     30  HD  BGC C   2      14.472   6.473   3.6950  0.00  0.00     0.000 HD
BRANCH 17 30
ATOM     30  O4  BGC C   3      19.535   6.842   4.9200  0.00  0.00     0.000 O
BRANCH 30 34
ATOM     31  C1  BGC C   3      22.789   9.232   4.7340  0.00  0.00     0.000 C
ATOM     32  C2  BGC C   3      21.424   9.959   4.7650  0.00  0.00     0.000 C
ATOM     33  C3  BGC C   3      20.331   9.036   5.1790  0.00  0.00     0.000 C
ATOM     34  C4  BGC C   3      20.401   7.783   4.3030  0.00  0.00     0.000 C
ATOM     35  C5  BGC C   3      21.819   7.165   4.2060  0.00  0.00     0.000 C
ATOM     36  O5  BGC C   3      22.751   8.151   3.8360  0.00  0.00     0.000 O
ATOM     37   O  BGC C   3      21.297  11.117   5.5700  0.00  0.00     0.000 O
ATOM     39  HD  BGC C   3      20.915  10.395   5.2810  0.00  0.00     0.000 HD
ATOM     39   O  BGC C   3      19.038   9.696   5.0510  0.00  0.00     0.000 O
ATOM     41  HD  BGC C   3      18.655   8.975   4.7630  0.00  0.00     0.000 HD
ATOM     41   C  BGC C   3      21.964   6.011   3.1880  0.00  0.00     0.000 C
ATOM     42   O  BGC C   3      21.745   6.385   1.7800  0.00  0.00     0.000 O
ATOM     44  HD  BGC C   3      21.363   5.663   1.4920  0.00  0.00     0.000 HD
BRANCH 31 44
ATOM     44  O4  BGC C   4      23.805  10.097   4.3490  0.00  0.00     0.000 O
BRANCH 44 48
ATOM     45  C1  BGC C   4      27.706  11.163   4.9880  0.00  0.00     0.000 C
ATOM     46  C2  BGC C   4      27.605   9.785   4.2600  0.00  0.00     0.000 C
ATOM     47  C3  BGC C   4      26.125   9.746   3.8580  0.00  0.00     0.000 C
ATOM     48  C4  BGC C   4      25.077  10.014   4.9210  0.00  0.00     0.000 C
ATOM     49  C5  BGC C   4      25.393  11.407   5.4900  0.00  0.00     0.000 C
ATOM     50  O5  BGC C   4      26.694  11.469   5.9600  0.00  0.00     0.000 O
ATOM     51   O  BGC C   4      28.435   9.434   3.0120  0.00  0.00     0.000 O
ATOM     53  HD  BGC C   4      28.180   8.684   2.6620  0.00  0.00     0.000 HD
ATOM     53   O  BGC C   4      25.980   8.279   3.5580  0.00  0.00     0.000 O
ATOM     55  HD  BGC C   4      25.725   7.529   3.2080  0.00  0.00     0.000 HD
ATOM     55   C  BGC C   4      24.519  11.726   6.6750  0.00  0.00     0.000 C
ATOM     56   O  BGC C   4      24.566  10.783   7.7520  0.00  0.00     0.000 O
ATOM     58  HD  BGC C   4      24.311  10.033   7.4020  0.00  0.00     0.000 HD
BRANCH 45 58
ATOM     58  O4  BGC C   5      28.921  11.317   5.6600  0.00  0.00     0.000 O
BRANCH 58 62
ATOM     59  C1  BGC C   5      31.522  11.061   7.2480  0.00  0.00     0.000 C
ATOM     60  C2  BGC C   5      30.902   9.753   7.2640  0.00  0.00     0.000 C
ATOM     61  C3  BGC C   5      29.404   9.789   7.5540  0.00  0.00     0.000 C
ATOM     62  C4  BGC C   5      28.844  11.127   7.0940  0.00  0.00     0.000 C
ATOM     63  C5  BGC C   5      29.796  12.199   7.5730  0.00  0.00     0.000 C
ATOM     64  O5  BGC C   5      31.096  11.804   8.0080  0.00  0.00     0.000 O
ATOM     65   O  BGC C   5      28.909  12.310   9.8170  0.00  0.00     0.000 O
ATOM     67  HD  BGC C   5      28.891  12.632   9.0130  0.00  0.00     0.000 HD
ATOM     67   O  BGC C   5      28.909  12.310   9.8170  0.00  0.00     0.000 O
ATOM     69  HD  BGC C   5      28.891  12.632   9.0130  0.00  0.00     0.000 HD
ENDBRANCH 58 62
ENDBRANCH 45 58
ENDBRANCH 44 48
ENDBRANCH 31 44
ENDBRANCH 30 34
ENDBRANCH 17 30
ENDBRANCH 16 20
ENDBRANCH 1 16
TORSDOF 8
ENDMDL
MODEL 11
REMARK VINA RESULT:      -3.9      2.680      6.129
ROOT
ATOM      1  C1  BGC C   1      10.352   2.062   5.3980  0.00  0.00     0.000 C
ATOM      2  C2  BGC C   1       9.432   1.268   4.4720  0.00  0.00     0.000 C
ATOM      3  C3  BGC C   1       8.022   1.845   4.5170  0.00  0.00     0.000 C
ATOM      4  C4  BGC C   1       7.515   2.013   5.9400  0.00  0.00     0.000 C
ATOM      5  C5  BGC C   1       8.581   2.677   6.8050  0.00  0.00     0.000 C
ATOM      6  O5  BGC C   1       9.845   2.106   6.6770  0.00  0.00     0.000 O
ATOM      7   O  BGC C   1       9.958   1.364   3.1690  0.00  0.00     0.000 O
ATOM      9  HD  BGC C   1       9.394   0.771   3.4530  0.00  0.00     0.000 HD
ATOM      9   O  BGC C   1       7.168   0.994   3.7400  0.00  0.00     0.000 O
ATOM     11  HD  BGC C   1       6.604   0.402   4.0240  0.00  0.00     0.000 HD
ATOM     11   O  BGC C   1       6.342   2.816   5.8660  0.00  0.00     0.000 O
ATOM     13  HD  BGC C   1       5.777   2.223   6.1500  0.00  0.00     0.000 HD
ATOM     13   O  BGC C   1       8.179   1.191   8.7470  0.00  0.00     0.000 O
ATOM     15  HD  BGC C   1       7.615   0.599   9.0310  0.00  0.00     0.000 HD
ATOM     15   C  BGC C   1       8.141   2.567   8.2770  0.00  0.00     0.000 C
ENDROOT
BRANCH 1 16
ATOM     16  O4  BGC C   2      11.594   1.403   5.4710  0.00  0.00     0.000 O
BRANCH 16 20
ATOM     17  C1  BGC C   2      15.521   2.348   6.0740  0.00  0.00     0.000 C
ATOM     18  C2  BGC C   2      14.631   2.387   7.3060  0.00  0.00     0.000 C
ATOM     19  C3  BGC C   2      13.311   1.678   7.0410  0.00  0.00     0.000 C
ATOM     20  C4  BGC C   2      12.695   2.219   5.7940  0.00  0.00     0.000 C
ATOM     21  C5  BGC C   2      13.693   2.207   4.6400  0.00  0.00     0.000 C
ATOM     22  O5  BGC C   2      14.854   2.905   4.9770  0.00  0.00     0.000 O
ATOM     23   O  BGC C   2      15.325   1.764   8.3980  0.00  0.00     0.000 O
ATOM     25  HD  BGC C   2      14.777   1.278   8.8590  0.00  0.00     0.000 HD
ATOM     25   O  BGC C   2      12.436   1.892   8.1420  0.00  0.00     0.000 O
ATOM     27  HD  BGC C   2      11.888   1.406   8.6040  0.00  0.00     0.000 HD
ATOM     27   C  BGC C   2      13.149   2.768   3.3100  0.00  0.00     0.000 C
ATOM     28   O  BGC C   2      12.613   4.090   3.4830  0.00  0.00     0.000 O
ATOM     30  HD  BGC C   2      12.065   3.604   3.9450  0.00  0.00     0.000 HD
BRANCH 17 30
ATOM     30  O4  BGC C   3      16.689   3.102   6.3190  0.00  0.00     0.000 O
BRANCH 30 34
ATOM     31  C1  BGC C   3      20.362   3.807   4.7850  0.00  0.00     0.000 C
ATOM     32  C2  BGC C   3      19.198   4.581   4.1210  0.00  0.00     0.000 C
ATOM     33  C3  BGC C   3      17.968   4.528   4.9590  0.00  0.00     0.000 C
ATOM     34  C4  BGC C   3      17.684   3.064   5.3070  0.00  0.00     0.000 C
ATOM     35  C5  BGC C   3      18.918   2.300   5.8520  0.00  0.00     0.000 C
ATOM     36  O5  BGC C   3      20.009   2.460   4.9800  0.00  0.00     0.000 O
ATOM     37   O  BGC C   3      19.398   5.942   3.7890  0.00  0.00     0.000 O
ATOM     39  HD  BGC C   3      18.843   5.348   4.0880  0.00  0.00     0.000 HD
ATOM     39   O  BGC C   3      16.845   5.126   4.2470  0.00  0.00     0.000 O
ATOM     41  HD  BGC C   3      16.290   4.532   4.5450  0.00  0.00     0.000 HD
ATOM     41   C  BGC C   3      18.718   0.779   6.0400  0.00  0.00     0.000 C
ATOM     42   O  BGC C   3      18.467   0.021   4.8030  0.00  0.00     0.000 O
ATOM     44  HD  BGC C   3      17.912  -0.573   5.1010  0.00  0.00     0.000 HD
BRANCH 31 44
ATOM     44  O4  BGC C   4      21.506   3.861   4.0000  0.00  0.00     0.000 O
BRANCH 44 48
ATOM     45  C1  BGC C   4      25.487   4.799   4.1960  0.00  0.00     0.000 C
ATOM     46  C2  BGC C   4      25.268   3.253   4.1560  0.00  0.00     0.000 C
ATOM     47  C3  BGC C   4      23.785   3.151   3.7760  0.00  0.00     0.000 C
ATOM     48  C4  BGC C   4      22.774   3.945   4.5810  0.00  0.00     0.000 C
ATOM     49  C5  BGC C   4      23.206   5.416   4.4780  0.00  0.00     0.000 C
ATOM     50  O5  BGC C   4      24.513   5.582   4.9040  0.00  0.00     0.000 O
ATOM     51   O  BGC C   4      26.053   2.320   3.2170  0.00  0.00     0.000 O
ATOM     53  HD  BGC C   4      25.735   1.514   3.2310  0.00  0.00     0.000 HD
ATOM     53   O  BGC C   4      23.520   1.720   4.1570  0.00  0.00     0.000 O
ATOM     55  HD  BGC C   4      23.203   0.915   4.1710  0.00  0.00     0.000 HD
ATOM     55   C  BGC C   4      22.374   6.296   5.3750  0.00  0.00     0.000 C
ATOM     56   O  BGC C   4      22.358   5.931   6.7600  0.00  0.00     0.000 O
ATOM     58  HD  BGC C   4      22.041   5.126   6.7740  0.00  0.00     0.000 HD
BRANCH 45 58
ATOM     58  O4  BGC C   5      26.717   5.143   4.7600  0.00  0.00     0.000 O
BRANCH 58 62
ATOM     59  C1  BGC C   5      28.314   7.608   5.6120  0.00  0.00     0.000 C
ATOM     60  C2  BGC C   5      27.387   8.053   4.5940  0.00  0.00     0.000 C
ATOM     61  C3  BGC C   5      27.309   7.122   3.3870  0.00  0.00     0.000 C
ATOM     62  C4  BGC C   5      27.670   5.711   3.8280  0.00  0.00     0.000 C
ATOM     63  C5  BGC C   5      28.896   5.815   4.7040  0.00  0.00     0.000 C
ATOM     64  O5  BGC C   5      29.258   7.097   5.2120  0.00  0.00     0.000 O
ATOM     65   O  BGC C   5      30.475   5.921   2.8780  0.00  0.00     0.000 O
ATOM     67  HD  BGC C   5      30.062   5.420   3.4520  0.00  0.00     0.000 HD
ATOM     67   O  BGC C   5      30.475   5.921   2.8780  0.00  0.00     0.000 O
ATOM     69  HD  BGC C   5      30.062   5.420   3.4520  0.00  0.00     0.000 HD
ENDBRANCH 58 62
ENDBRANCH 45 58
ENDBRANCH 44 48
ENDBRANCH 31 44
ENDBRANCH 30 34
ENDBRANCH 17 30
ENDBRANCH 16 20
ENDBRANCH 1 16
TORSDOF 8
ENDMDL
MODEL 12
REMARK VINA RESULT:      -3.7      5.670      9.649
ROOT
ATOM      1  C1  BGC C   1      13.507   3.007   4.1120  0.00  0.00     0.000 C
ATOM      2  C2  BGC C   1      12.701   2.225   3.0750  0.00  0.00     0.000 C
ATOM      3  C3  BGC C   1      11.261   2.063   3.5470  0.00  0.00     0.000 C
ATOM      4  C4  BGC C   1      11.178   1.526   4.9670  0.00  0.00     0.000 C
ATOM      5  C5  BGC C   1      12.142   2.284   5.8750  0.00  0.00     0.000 C
ATOM      6  O5  BGC C   1      13.425   2.413   5.3500  0.00  0.00     0.000 O
ATOM      7   O  BGC C   1      12.742   2.953   1.8710  0.00  0.00     0.000 O
ATOM      9  HD  BGC C   1      12.541   2.115   1.9580  0.00  0.00     0.000 HD
ATOM      9   O  BGC C   1      10.579   1.216   2.6120  0.00  0.00     0.000 O
ATOM     11  HD  BGC C   1      10.378   0.379   2.7000  0.00  0.00     0.000 HD
ATOM     11   O  BGC C   1       9.831   1.698   5.3930  0.00  0.00     0.000 O
ATOM     13  HD  BGC C   1       9.629   0.860   5.4800  0.00  0.00     0.000 HD
ATOM     13   O  BGC C   1      12.900   0.247   7.0630  0.00  0.00     0.000 O
ATOM     15  HD  BGC C   1      12.698  -0.591   7.1500  0.00  0.00     0.000 HD
ATOM     15   C  BGC C   1      12.232   1.530   7.2140  0.00  0.00     0.000 C
ENDROOT
BRANCH 1 16
ATOM     16  O4  BGC C   2      14.864   2.988   3.7350  0.00  0.00     0.000 O
BRANCH 16 20
ATOM     17  C1  BGC C   2      18.107   5.458   3.9700  0.00  0.00     0.000 C
ATOM     18  C2  BGC C   2      17.806   4.636   5.2130  0.00  0.00     0.000 C
ATOM     19  C3  BGC C   2      16.830   3.512   4.8950  0.00  0.00     0.000 C
ATOM     20  C4  BGC C   2      15.636   4.070   4.1960  0.00  0.00     0.000 C
ATOM     21  C5  BGC C   2      16.050   4.939   3.0120  0.00  0.00     0.000 C
ATOM     22  O5  BGC C   2      16.921   5.952   3.4170  0.00  0.00     0.000 O
ATOM     23   O  BGC C   2      19.036   4.102   5.7250  0.00  0.00     0.000 O
ATOM     25  HD  BGC C   2      18.918   3.287   5.9920  0.00  0.00     0.000 HD
ATOM     25   O  BGC C   2      16.430   2.884   6.1060  0.00  0.00     0.000 O
ATOM     27  HD  BGC C   2      16.311   2.068   6.3730  0.00  0.00     0.000 HD
ATOM     27   C  BGC C   2      14.877   5.578   2.2390  0.00  0.00     0.000 C
ATOM     28   O  BGC C   2      14.017   6.321   3.1170  0.00  0.00     0.000 O
ATOM     30  HD  BGC C   2      13.899   5.505   3.3840  0.00  0.00     0.000 HD
BRANCH 17 30
ATOM     30  O4  BGC C   3      18.929   6.550   4.3210  0.00  0.00     0.000 O
BRANCH 30 34
ATOM     31  C1  BGC C   3      21.693   9.062   2.7750  0.00  0.00     0.000 C
ATOM     32  C2  BGC C   3      20.238   9.291   2.3000  0.00  0.00     0.000 C
ATOM     33  C3  BGC C   3      19.268   8.568   3.1680  0.00  0.00     0.000 C
ATOM     34  C4  BGC C   3      19.713   7.107   3.2770  0.00  0.00     0.000 C
ATOM     35  C5  BGC C   3      21.212   6.935   3.6340  0.00  0.00     0.000 C
ATOM     36  O5  BGC C   3      22.008   7.692   2.7560  0.00  0.00     0.000 O
ATOM     37   O  BGC C   3      19.767  10.621   2.1930  0.00  0.00     0.000 O
ATOM     39  HD  BGC C   3      19.576   9.805   2.4100  0.00  0.00     0.000 HD
ATOM     39   O  BGC C   3      17.923   8.668   2.6130  0.00  0.00     0.000 O
ATOM     41  HD  BGC C   3      17.732   7.851   2.8300  0.00  0.00     0.000 HD
ATOM     41   C  BGC C   3      21.738   5.483   3.5730  0.00  0.00     0.000 C
ATOM     42   O  BGC C   3      21.715   4.863   2.2380  0.00  0.00     0.000 O
ATOM     44  HD  BGC C   3      21.524   4.047   2.4550  0.00  0.00     0.000 HD
BRANCH 31 44
ATOM     44  O4  BGC C   4      22.594   9.739   1.9640  0.00  0.00     0.000 O
BRANCH 44 48
ATOM     45  C1  BGC C   4      26.099  11.854   1.9110  0.00  0.00     0.000 C
ATOM     46  C2  BGC C   4      26.360  10.323   2.0790  0.00  0.00     0.000 C
ATOM     47  C3  BGC C   4      24.982   9.728   1.7630  0.00  0.00     0.000 C
ATOM     48  C4  BGC C   4      23.771  10.279   2.4890  0.00  0.00     0.000 C
ATOM     49  C5  BGC C   4      23.736  11.785   2.1810  0.00  0.00     0.000 C
ATOM     50  O5  BGC C   4      24.927  12.394   2.5410  0.00  0.00     0.000 O
ATOM     51   O  BGC C   4      27.401   9.554   1.2460  0.00  0.00     0.000 O
ATOM     53  HD  BGC C   4      27.343   8.700   1.3750  0.00  0.00     0.000 HD
ATOM     53   O  BGC C   4      25.161   8.349   2.3350  0.00  0.00     0.000 O
ATOM     55  HD  BGC C   4      25.103   7.494   2.4640  0.00  0.00     0.000 HD
ATOM     55   C  BGC C   4      22.667  12.484   2.9810  0.00  0.00     0.000 C
ATOM     56   O  BGC C   4      22.749  12.320   4.4020  0.00  0.00     0.000 O
ATOM     58  HD  BGC C   4      22.691  11.466   4.5310  0.00  0.00     0.000 HD
BRANCH 45 58
ATOM     58  O4  BGC C   5      27.161  12.626   2.3860  0.00  0.00     0.000 O
BRANCH 58 62
ATOM     59  C1  BGC C   5      29.435  14.138   3.7640  0.00  0.00     0.000 C
ATOM     60  C2  BGC C   5      29.084  13.041   4.6390  0.00  0.00     0.000 C
ATOM     61  C3  BGC C   5      27.579  12.859   4.8200  0.00  0.00     0.000 C
ATOM     62  C4  BGC C   5      26.866  13.386   3.5830  0.00  0.00     0.000 C
ATOM     63  C5  BGC C   5      27.494  14.716   3.2370  0.00  0.00     0.000 C
ATOM     64  O5  BGC C   5      28.745  15.049   3.8340  0.00  0.00     0.000 O
ATOM     65   O  BGC C   5      26.213  15.998   4.8340  0.00  0.00     0.000 O
ATOM     67  HD  BGC C   5      26.279  15.712   4.0190  0.00  0.00     0.000 HD
ATOM     67   O  BGC C   5      26.213  15.998   4.8340  0.00  0.00     0.000 O
ATOM     69  HD  BGC C   5      26.279  15.712   4.0190  0.00  0.00     0.000 HD
ENDBRANCH 58 62
ENDBRANCH 45 58
ENDBRANCH 44 48
ENDBRANCH 31 44
ENDBRANCH 30 34
ENDBRANCH 17 30
ENDBRANCH 16 20
ENDBRANCH 1 16
TORSDOF 8
ENDMDL
MODEL 13
REMARK VINA RESULT:      -3.6      2.553      4.136
ROOT
ATOM      1  C1  BGC C   1       6.894   3.172   6.9980  0.00  0.00     0.000 C
ATOM      2  C2  BGC C   1       6.001   2.046   6.4790  0.00  0.00     0.000 C
ATOM      3  C3  BGC C   1       4.534   2.423   6.6500  0.00  0.00     0.000 C
ATOM      4  C4  BGC C   1       4.223   2.893   8.0610  0.00  0.00     0.000 C
ATOM      5  C5  BGC C   1       5.272   3.899   8.5260  0.00  0.00     0.000 C
ATOM      6  O5  BGC C   1       6.583   3.487   8.3010  0.00  0.00     0.000 O
ATOM      7   O  BGC C   1       6.302   1.862   5.1160  0.00  0.00     0.000 O
ATOM      9  HD  BGC C   1       5.900   1.297   5.6340  0.00  0.00     0.000 HD
ATOM      9   O  BGC C   1       3.738   1.291   6.2740  0.00  0.00     0.000 O
ATOM     11  HD  BGC C   1       3.335   0.726   6.7920  0.00  0.00     0.000 HD
ATOM     11   O  BGC C   1       2.929   3.486   8.0210  0.00  0.00     0.000 O
ATOM     13  HD  BGC C   1       2.527   2.920   8.5400  0.00  0.00     0.000 HD
ATOM     13   O  BGC C   1       5.431   2.942  10.8060  0.00  0.00     0.000 O
ATOM     15  HD  BGC C   1       5.029   2.376  11.3240  0.00  0.00     0.000 HD
ATOM     15   C  BGC C   1       5.082   4.126  10.0370  0.00  0.00     0.000 C
ENDROOT
BRANCH 1 16
ATOM     16  O4  BGC C   2       8.230   2.727   6.9900  0.00  0.00     0.000 O
BRANCH 16 20
ATOM     17  C1  BGC C   2      11.945   4.203   6.1570  0.00  0.00     0.000 C
ATOM     18  C2  BGC C   2      11.237   4.821   7.3520  0.00  0.00     0.000 C
ATOM     19  C3  BGC C   2      10.055   3.964   7.7810  0.00  0.00     0.000 C
ATOM     20  C4  BGC C   2       9.186   3.685   6.6010  0.00  0.00     0.000 C
ATOM     21  C5  BGC C   2      10.004   3.141   5.4340  0.00  0.00     0.000 C
ATOM     22  O5  BGC C   2      11.043   4.013   5.1050  0.00  0.00     0.000 O
ATOM     23   O  BGC C   2      12.177   4.955   8.4290  0.00  0.00     0.000 O
ATOM     25  HD  BGC C   2      11.799   4.748   9.1800  0.00  0.00     0.000 HD
ATOM     25   O  BGC C   2       9.310   4.659   8.7740  0.00  0.00     0.000 O
ATOM     27  HD  BGC C   2       8.933   4.452   9.5260  0.00  0.00     0.000 HD
ATOM     27   C  BGC C   2       9.190   2.840   4.1590  0.00  0.00     0.000 C
ATOM     28   O  BGC C   2       8.437   3.990   3.7380  0.00  0.00     0.000 O
ATOM     30  HD  BGC C   2       8.060   3.783   4.4900  0.00  0.00     0.000 HD
BRANCH 17 30
ATOM     30  O4  BGC C   3      12.968   5.072   5.7200  0.00  0.00     0.000 O
BRANCH 30 34
ATOM     31  C1  BGC C   3      16.734   4.971   4.2560  0.00  0.00     0.000 C
ATOM     32  C2  BGC C   3      15.603   4.878   3.2050  0.00  0.00     0.000 C
ATOM     33  C3  BGC C   3      14.290   5.268   3.7900  0.00  0.00     0.000 C
ATOM     34  C4  BGC C   3      14.076   4.464   5.0740  0.00  0.00     0.000 C
ATOM     35  C5  BGC C   3      15.290   4.489   6.0370  0.00  0.00     0.000 C
ATOM     36  O5  BGC C   3      16.462   4.129   5.3490  0.00  0.00     0.000 O
ATOM     37   O  BGC C   3      15.741   5.612   2.0020  0.00  0.00     0.000 O
ATOM     39  HD  BGC C   3      15.199   5.337   2.6200  0.00  0.00     0.000 HD
ATOM     39   O  BGC C   3      13.219   5.025   2.8310  0.00  0.00     0.000 O
ATOM     41  HD  BGC C   3      12.677   4.750   3.4490  0.00  0.00     0.000 HD
ATOM     41   C  BGC C   3      15.181   3.543   7.2550  0.00  0.00     0.000 C
ATOM     42   O  BGC C   3      15.134   2.107   6.9320  0.00  0.00     0.000 O
ATOM     44  HD  BGC C   3      14.593   1.832   7.5490  0.00  0.00     0.000 HD
BRANCH 31 44
ATOM     44  O4  BGC C   4      17.956   4.608   3.7060  0.00  0.00     0.000 O
BRANCH 44 48
ATOM     45  C1  BGC C   4      22.012   5.055   4.0420  0.00  0.00     0.000 C
ATOM     46  C2  BGC C   4      21.481   3.939   4.9980  0.00  0.00     0.000 C
ATOM     47  C3  BGC C   4      20.049   3.738   4.4870  0.00  0.00     0.000 C
ATOM     48  C4  BGC C   4      19.158   4.954   4.3280  0.00  0.00     0.000 C
ATOM     49  C5  BGC C   4      19.893   5.899   3.3630  0.00  0.00     0.000 C
ATOM     50  O5  BGC C   4      21.164   6.194   3.8280  0.00  0.00     0.000 O
ATOM     51   O  BGC C   4      22.135   2.550   5.1080  0.00  0.00     0.000 O
ATOM     53  HD  BGC C   4      21.657   2.011   5.5890  0.00  0.00     0.000 HD
ATOM     53   O  BGC C   4      19.461   3.000   5.6590  0.00  0.00     0.000 O
ATOM     55  HD  BGC C   4      18.983   2.461   6.1400  0.00  0.00     0.000 HD
ATOM     55   C  BGC C   4      19.187   7.225   3.2480  0.00  0.00     0.000 C
ATOM     56   O  BGC C   4      18.975   7.923   4.4810  0.00  0.00     0.000 O
ATOM     58  HD  BGC C   4      18.497   7.384   4.9620  0.00  0.00     0.000 HD
BRANCH 45 58
ATOM     58  O4  BGC C   5      23.233   5.580   4.4710  0.00  0.00     0.000 O
BRANCH 58 62
ATOM     59  C1  BGC C   5      25.328   3.526   3.6080  0.00  0.00     0.000 C
ATOM     60  C2  BGC C   5      26.048   4.590   4.2730  0.00  0.00     0.000 C
ATOM     61  C3  BGC C   5      25.601   5.988   3.8540  0.00  0.00     0.000 C
ATOM     62  C4  BGC C   5      24.149   5.927   3.4030  0.00  0.00     0.000 C
ATOM     63  C5  BGC C   5      24.008   4.718   2.5070  0.00  0.00     0.000 C
ATOM     64  O5  BGC C   5      25.047   3.742   2.5190  0.00  0.00     0.000 O
ATOM     65   O  BGC C   5      24.844   5.809   0.5200  0.00  0.00     0.000 O
ATOM     67  HD  BGC C   5      24.150   5.588   0.9880  0.00  0.00     0.000 HD
ATOM     67   O  BGC C   5      24.844   5.809   0.5200  0.00  0.00     0.000 O
ATOM     69  HD  BGC C   5      24.150   5.588   0.9880  0.00  0.00     0.000 HD
ENDBRANCH 58 62
ENDBRANCH 45 58
ENDBRANCH 44 48
ENDBRANCH 31 44
ENDBRANCH 30 34
ENDBRANCH 17 30
ENDBRANCH 16 20
ENDBRANCH 1 16
TORSDOF 8
ENDMDL
MODEL 14
REMARK VINA RESULT:      -3.5      4.536     15.500
ROOT
ATOM      1  C1  BGC C   1      25.298  10.220   2.1830  0.00  0.00     0.000 C
ATOM      2  C2  BGC C   1      26.113  11.135   3.0960  0.00  0.00     0.000 C
ATOM      3  C3  BGC C   1      27.149  11.899   2.2800  0.00  0.00     0.000 C
ATOM      4  C4  BGC C   1      27.970  10.982   1.3890  0.00  0.00     0.000 C
ATOM      5  C5  BGC C   1      27.056  10.012   0.6460  0.00  0.00     0.000 C
ATOM      6  O5  BGC C   1      26.120   9.383   1.4630  0.00  0.00     0.000 O
ATOM      7   O  BGC C   1      25.215  12.030   3.7080  0.00  0.00     0.000 O
ATOM      9  HD  BGC C   1      26.016  11.842   3.9770  0.00  0.00     0.000 HD
ATOM      9   O  BGC C   1      27.972  12.641   3.1900  0.00  0.00     0.000 O
ATOM     11  HD  BGC C   1      28.774  12.453   3.4590  0.00  0.00     0.000 HD
ATOM     11   O  BGC C   1      28.677  11.817   0.4790  0.00  0.00     0.000 O
ATOM     13  HD  BGC C   1      29.479  11.629   0.7480  0.00  0.00     0.000 HD
ATOM     13   O  BGC C   1      28.557   8.069   0.9790  0.00  0.00     0.000 O
ATOM     15  HD  BGC C   1      29.359   7.881   1.2480  0.00  0.00     0.000 HD
ATOM     15   C  BGC C   1      27.936   8.933  -0.0120  0.00  0.00     0.000 C
ENDROOT
BRANCH 1 16
ATOM     16  O4  BGC C   2      24.476   9.403   2.9820  0.00  0.00     0.000 O
BRANCH 16 20
ATOM     17  C1  BGC C   2      20.745   7.749   2.8330  0.00  0.00     0.000 C
ATOM     18  C2  BGC C   2      21.793   7.108   1.9370  0.00  0.00     0.000 C
ATOM     19  C3  BGC C   2      23.192   7.552   2.3380  0.00  0.00     0.000 C
ATOM     20  C4  BGC C   2      23.242   9.042   2.4100  0.00  0.00     0.000 C
ATOM     21  C5  BGC C   2      22.105   9.587   3.2690  0.00  0.00     0.000 C
ATOM     22  O5  BGC C   2      20.868   9.142   2.8010  0.00  0.00     0.000 O
ATOM     23   O  BGC C   2      21.673   5.680   2.0320  0.00  0.00     0.000 O
ATOM     25  HD  BGC C   2      22.459   5.317   2.0530  0.00  0.00     0.000 HD
ATOM     25   O  BGC C   2      24.126   7.085   1.3720  0.00  0.00     0.000 O
ATOM     27  HD  BGC C   2      24.912   6.722   1.3930  0.00  0.00     0.000 HD
ATOM     27   C  BGC C   2      22.064  11.125   3.3850  0.00  0.00     0.000 C
ATOM     28   O  BGC C   2      22.041  11.745   2.0890  0.00  0.00     0.000 O
ATOM     30  HD  BGC C   2      22.827  11.382   2.1100  0.00  0.00     0.000 HD
BRANCH 17 30
ATOM     30  O4  BGC C   3      19.459   7.400   2.3700  0.00  0.00     0.000 O
BRANCH 30 34
ATOM     31  C1  BGC C   3      15.766   6.443   3.7050  0.00  0.00     0.000 C
ATOM     32  C2  BGC C   3      16.149   7.938   3.8070  0.00  0.00     0.000 C
ATOM     33  C3  BGC C   3      17.356   8.242   2.9890  0.00  0.00     0.000 C
ATOM     34  C4  BGC C   3      18.455   7.244   3.3620  0.00  0.00     0.000 C
ATOM     35  C5  BGC C   3      17.984   5.767   3.3650  0.00  0.00     0.000 C
ATOM     36  O5  BGC C   3      16.825   5.631   4.1490  0.00  0.00     0.000 O
ATOM     37   O  BGC C   3      15.176   8.907   3.4630  0.00  0.00     0.000 O
ATOM     39  HD  BGC C   3      16.013   8.686   3.4360  0.00  0.00     0.000 HD
ATOM     39   O  BGC C   3      17.791   9.614   3.2220  0.00  0.00     0.000 O
ATOM     41  HD  BGC C   3      18.628   9.393   3.1960  0.00  0.00     0.000 HD
ATOM     41   C  BGC C   3      19.013   4.751   3.9110  0.00  0.00     0.000 C
ATOM     42   O  BGC C   3      19.364   4.916   5.3320  0.00  0.00     0.000 O
ATOM     44  HD  BGC C   3      20.201   4.695   5.3060  0.00  0.00     0.000 HD
BRANCH 31 44
ATOM     44  O4  BGC C   4      14.639   6.164   4.4680  0.00  0.00     0.000 O
BRANCH 44 48
ATOM     45  C1  BGC C   4      11.120   4.076   4.5760  0.00  0.00     0.000 C
ATOM     46  C2  BGC C   4      12.340   3.150   4.8790  0.00  0.00     0.000 C
ATOM     47  C3  BGC C   4      13.468   4.168   5.0920  0.00  0.00     0.000 C
ATOM     48  C4  BGC C   4      13.689   5.235   4.0380  0.00  0.00     0.000 C
ATOM     49  C5  BGC C   4      12.359   5.996   3.9130  0.00  0.00     0.000 C
ATOM     50  O5  BGC C   4      11.316   5.132   3.6230  0.00  0.00     0.000 O
ATOM     51   O  BGC C   4      12.373   2.167   6.0630  0.00  0.00     0.000 O
ATOM     53  HD  BGC C   4      13.158   1.815   6.1620  0.00  0.00     0.000 HD
ATOM     53   O  BGC C   4      14.660   3.262   4.9570  0.00  0.00     0.000 O
ATOM     55  HD  BGC C   4      15.445   2.910   5.0560  0.00  0.00     0.000 HD
ATOM     55   C  BGC C   4      12.395   6.983   2.7750  0.00  0.00     0.000 C
ATOM     56   O  BGC C   4      12.718   6.436   1.4910  0.00  0.00     0.000 O
ATOM     58  HD  BGC C   4      13.503   6.084   1.5900  0.00  0.00     0.000 HD
BRANCH 45 58
ATOM     58  O4  BGC C   5      10.016   3.358   4.1090  0.00  0.00     0.000 O
BRANCH 58 62
ATOM     59  C1  BGC C   5       7.117   4.302   3.8650  0.00  0.00     0.000 C
ATOM     60  C2  BGC C   5       7.691   5.027   4.9770  0.00  0.00     0.000 C
ATOM     61  C3  BGC C   5       8.517   4.154   5.9180  0.00  0.00     0.000 C
ATOM     62  C4  BGC C   5       9.070   2.971   5.1350  0.00  0.00     0.000 C
ATOM     63  C5  BGC C   5       7.942   2.426   4.2900  0.00  0.00     0.000 C
ATOM     64  O5  BGC C   5       6.781   3.235   4.1080  0.00  0.00     0.000 O
ATOM     65   O  BGC C   5       6.944   1.116   6.0570  0.00  0.00     0.000 O
ATOM     67  HD  BGC C   5       7.490   1.131   5.3850  0.00  0.00     0.000 HD
ATOM     67   O  BGC C   5       6.944   1.116   6.0570  0.00  0.00     0.000 O
ATOM     69  HD  BGC C   5       7.490   1.131   5.3850  0.00  0.00     0.000 HD
ENDBRANCH 58 62
ENDBRANCH 45 58
ENDBRANCH 44 48
ENDBRANCH 31 44
ENDBRANCH 30 34
ENDBRANCH 17 30
ENDBRANCH 16 20
ENDBRANCH 1 16
TORSDOF 8
ENDMDL
MODEL 15
REMARK VINA RESULT:      -3.2      7.361     14.500
ROOT
ATOM      1  C1  BGC C   1      21.366   6.082  17.3260  0.00  0.00     0.000 C
ATOM      2  C2  BGC C   1      22.821   6.033  17.7920  0.00  0.00     0.000 C
ATOM      3  C3  BGC C   1      22.881   5.747  19.2880  0.00  0.00     0.000 C
ATOM      4  C4  BGC C   1      21.979   6.673  20.0870  0.00  0.00     0.000 C
ATOM      5  C5  BGC C   1      20.602   6.760  19.4350  0.00  0.00     0.000 C
ATOM      6  O5  BGC C   1      20.643   6.991  18.0630  0.00  0.00     0.000 O
ATOM      7   O  BGC C   1      23.462   5.007  17.0720  0.00  0.00     0.000 O
ATOM      9  HD  BGC C   1      23.848   5.658  17.4930  0.00  0.00     0.000 HD
ATOM      9   O  BGC C   1      24.250   5.841  19.7040  0.00  0.00     0.000 O
ATOM     11  HD  BGC C   1      24.636   6.492  20.1250  0.00  0.00     0.000 HD
ATOM     11   O  BGC C   1      21.891   6.130  21.3990  0.00  0.00     0.000 O
ATOM     13  HD  BGC C   1      22.277   6.781  21.8200  0.00  0.00     0.000 HD
ATOM     13   O  BGC C   1      20.402   9.206  19.7770  0.00  0.00     0.000 O
ATOM     15  HD  BGC C   1      20.789   9.857  20.1980  0.00  0.00     0.000 HD
ATOM     15   C  BGC C   1      19.827   7.911  20.1040  0.00  0.00     0.000 C
ENDROOT
BRANCH 1 16
ATOM     16  O4  BGC C   2      21.337   6.520  15.9880  0.00  0.00     0.000 O
BRANCH 16 20
ATOM     17  C1  BGC C   2      19.095   5.908  12.6300  0.00  0.00     0.000 C
ATOM     18  C2  BGC C   2      18.480   6.816  13.6830  0.00  0.00     0.000 C
ATOM     19  C3  BGC C   2      19.529   7.257  14.6940  0.00  0.00     0.000 C
ATOM     20  C4  BGC C   2      20.246   6.062  15.2250  0.00  0.00     0.000 C
ATOM     21  C5  BGC C   2      20.756   5.180  14.0890  0.00  0.00     0.000 C
ATOM     22  O5  BGC C   2      19.713   4.810  13.2380  0.00  0.00     0.000 O
ATOM     23   O  BGC C   2      17.900   7.956  13.0320  0.00  0.00     0.000 O
ATOM     25  HD  BGC C   2      18.058   8.673  13.4910  0.00  0.00     0.000 HD
ATOM     25   O  BGC C   2      18.888   7.947  15.7610  0.00  0.00     0.000 O
ATOM     27  HD  BGC C   2      19.046   8.665  16.2200  0.00  0.00     0.000 HD
ATOM     27   C  BGC C   2      21.496   3.905  14.5430  0.00  0.00     0.000 C
ATOM     28   O  BGC C   2      20.691   3.129  15.4460  0.00  0.00     0.000 O
ATOM     30  HD  BGC C   2      20.849   3.846  15.9050  0.00  0.00     0.000 HD
BRANCH 17 30
ATOM     30  O4  BGC C   3      18.078   5.434  11.7730  0.00  0.00     0.000 O
BRANCH 30 34
ATOM     31  C1  BGC C   3      17.356   4.617   7.8810  0.00  0.00     0.000 C
ATOM     32  C2  BGC C   3      18.188   3.560   8.6450  0.00  0.00     0.000 C
ATOM     33  C3  BGC C   3      18.104   3.769  10.1170  0.00  0.00     0.000 C
ATOM     34  C4  BGC C   3      18.445   5.231  10.4170  0.00  0.00     0.000 C
ATOM     35  C5  BGC C   3      17.673   6.246   9.5350  0.00  0.00     0.000 C
ATOM     36  O5  BGC C   3      17.815   5.913   8.1770  0.00  0.00     0.000 O
ATOM     37   O  BGC C   3      17.908   2.191   8.4170  0.00  0.00     0.000 O
ATOM     39  HD  BGC C   3      18.126   2.794   8.9990  0.00  0.00     0.000 HD
ATOM     39   O  BGC C   3      19.015   2.865  10.8080  0.00  0.00     0.000 O
ATOM     41  HD  BGC C   3      19.234   3.468  11.3890  0.00  0.00     0.000 HD
ATOM     41   C  BGC C   3      18.124   7.718   9.6820  0.00  0.00     0.000 C
ATOM     42   O  BGC C   3      19.505   7.997   9.2530  0.00  0.00     0.000 O
ATOM     44  HD  BGC C   3      19.723   8.600   9.8350  0.00  0.00     0.000 HD
BRANCH 31 44
ATOM     44  O4  BGC C   4      17.436   4.417   6.5090  0.00  0.00     0.000 O
BRANCH 44 48
ATOM     45  C1  BGC C   4      15.323   4.435   3.0020  0.00  0.00     0.000 C
ATOM     46  C2  BGC C   4      15.559   5.886   3.5320  0.00  0.00     0.000 C
ATOM     47  C3  BGC C   4      16.601   5.656   4.6340  0.00  0.00     0.000 C
ATOM     48  C4  BGC C   4      16.321   4.602   5.6870  0.00  0.00     0.000 C
ATOM     49  C5  BGC C   4      16.115   3.282   4.9270  0.00  0.00     0.000 C
ATOM     50  O5  BGC C   4      15.112   3.405   3.9800  0.00  0.00     0.000 O
ATOM     51   O  BGC C   4      16.073   7.030   2.6390  0.00  0.00     0.000 O
ATOM     53  HD  BGC C   4      16.261   7.735   3.1040  0.00  0.00     0.000 HD
ATOM     53   O  BGC C   4      16.481   6.960   5.3750  0.00  0.00     0.000 O
ATOM     55  HD  BGC C   4      16.670   7.665   5.8400  0.00  0.00     0.000 HD
ATOM     55   C  BGC C   4      15.665   2.181   5.8520  0.00  0.00     0.000 C
ATOM     56   O  BGC C   4      14.478   2.451   6.6060  0.00  0.00     0.000 O
ATOM     58  HD  BGC C   4      14.666   3.157   7.0720  0.00  0.00     0.000 HD
BRANCH 45 58
ATOM     58  O4  BGC C   5      14.224   4.359   2.1430  0.00  0.00     0.000 O
BRANCH 58 62
ATOM     59  C1  BGC C   5      11.465   4.648   0.8560  0.00  0.00     0.000 C
ATOM     60  C2  BGC C   5      11.350   5.182   2.1950  0.00  0.00     0.000 C
ATOM     61  C3  BGC C   5      12.010   4.312   3.2620  0.00  0.00     0.000 C
ATOM     62  C4  BGC C   5      13.143   3.522   2.6210  0.00  0.00     0.000 C
ATOM     63  C5  BGC C   5      12.620   2.965   1.3180  0.00  0.00     0.000 C
ATOM     64  O5  BGC C   5      11.412   3.506   0.7860  0.00  0.00     0.000 O
ATOM     65   O  BGC C   5      11.512   1.061   2.3100  0.00  0.00     0.000 O
ATOM     67  HD  BGC C   5      12.229   1.368   1.9340  0.00  0.00     0.000 HD
ATOM     67   O  BGC C   5      11.512   1.061   2.3100  0.00  0.00     0.000 O
ATOM     69  HD  BGC C   5      12.229   1.368   1.9340  0.00  0.00     0.000 HD
ENDBRANCH 58 62
ENDBRANCH 45 58
ENDBRANCH 44 48
ENDBRANCH 31 44
ENDBRANCH 30 34
ENDBRANCH 17 30
ENDBRANCH 16 20
ENDBRANCH 1 16
TORSDOF 8
ENDMDL
MODEL 16
REMARK VINA RESULT:      -3.2      4.137      7.857
ROOT
ATOM      1  C1  BGC C   1      11.946   2.811   4.9020  0.00  0.00     0.000 C
ATOM      2  C2  BGC C   1      11.294   1.804   3.9560  0.00  0.00     0.000 C
ATOM      3  C3  BGC C   1       9.778   1.851   4.1080  0.00  0.00     0.000 C
ATOM      4  C4  BGC C   1       9.342   1.747   5.5600  0.00  0.00     0.000 C
ATOM      5  C5  BGC C   1      10.172   2.687   6.4290  0.00  0.00     0.000 C
ATOM      6  O5  BGC C   1      11.543   2.600   6.2010  0.00  0.00     0.000 O
ATOM      7   O  BGC C   1      11.665   2.154   2.6440  0.00  0.00     0.000 O
ATOM      9  HD  BGC C   1      11.359   1.387   2.9040  0.00  0.00     0.000 HD
ATOM      9   O  BGC C   1       9.217   0.805   3.3030  0.00  0.00     0.000 O
ATOM     11  HD  BGC C   1       8.912   0.038   3.5630  0.00  0.00     0.000 HD
ATOM     11   O  BGC C   1       7.963   2.095   5.6020  0.00  0.00     0.000 O
ATOM     13  HD  BGC C   1       7.657   1.328   5.8620  0.00  0.00     0.000 HD
ATOM     13   O  BGC C   1      10.437   1.041   8.2620  0.00  0.00     0.000 O
ATOM     15  HD  BGC C   1      10.132   0.273   8.5220  0.00  0.00     0.000 HD
ATOM     15   C  BGC C   1       9.897   2.344   7.9050  0.00  0.00     0.000 C
ENDROOT
BRANCH 1 16
ATOM     16  O4  BGC C   2      13.341   2.621   4.8690  0.00  0.00     0.000 O
BRANCH 16 20
ATOM     17  C1  BGC C   2      16.737   4.878   5.0960  0.00  0.00     0.000 C
ATOM     18  C2  BGC C   2      15.982   4.680   6.4010  0.00  0.00     0.000 C
ATOM     19  C3  BGC C   2      14.969   3.551   6.2730  0.00  0.00     0.000 C
ATOM     20  C4  BGC C   2      14.115   3.780   5.0720  0.00  0.00     0.000 C
ATOM     21  C5  BGC C   2      14.968   4.044   3.8340  0.00  0.00     0.000 C
ATOM     22  O5  BGC C   2      15.840   5.112   4.0480  0.00  0.00     0.000 O
ATOM     23   O  BGC C   2      16.926   4.392   7.4430  0.00  0.00     0.000 O
ATOM     25  HD  BGC C   2      16.614   3.775   7.9640  0.00  0.00     0.000 HD
ATOM     25   O  BGC C   2      14.159   3.515   7.4410  0.00  0.00     0.000 O
ATOM     27  HD  BGC C   2      13.847   2.898   7.9620  0.00  0.00     0.000 HD
ATOM     27   C  BGC C   2      14.168   4.312   2.5430  0.00  0.00     0.000 C
ATOM     28   O  BGC C   2      13.225   5.380   2.7270  0.00  0.00     0.000 O
ATOM     30  HD  BGC C   2      12.913   4.762   3.2480  0.00  0.00     0.000 HD
BRANCH 17 30
ATOM     30  O4  BGC C   3      17.589   5.997   5.2160  0.00  0.00     0.000 O
BRANCH 30 34
ATOM     31  C1  BGC C   3      21.192   7.341   3.9710  0.00  0.00     0.000 C
ATOM     32  C2  BGC C   3      20.014   7.578   2.9960  0.00  0.00     0.000 C
ATOM     33  C3  BGC C   3      18.704   7.373   3.6740  0.00  0.00     0.000 C
ATOM     34  C4  BGC C   3      18.730   6.010   4.3720  0.00  0.00     0.000 C
ATOM     35  C5  BGC C   3      19.994   5.775   5.2380  0.00  0.00     0.000 C
ATOM     36  O5  BGC C   3      21.152   6.032   4.4840  0.00  0.00     0.000 O
ATOM     37   O  BGC C   3      19.932   8.825   2.3330  0.00  0.00     0.000 O
ATOM     39  HD  BGC C   3      19.495   8.184   2.7170  0.00  0.00     0.000 HD
ATOM     39   O  BGC C   3      17.618   7.447   2.7050  0.00  0.00     0.000 O
ATOM     41  HD  BGC C   3      17.181   6.805   3.0890  0.00  0.00     0.000 HD
ATOM     41   C  BGC C   3      20.142   4.346   5.8080  0.00  0.00     0.000 C
ATOM     42   O  BGC C   3      20.314   3.284   4.8030  0.00  0.00     0.000 O
ATOM     44  HD  BGC C   3      19.877   2.642   5.1870  0.00  0.00     0.000 HD
BRANCH 31 44
ATOM     44  O4  BGC C   4      22.412   7.535   3.3360  0.00  0.00     0.000 O
BRANCH 44 48
ATOM     45  C1  BGC C   4      26.202   9.022   3.7610  0.00  0.00     0.000 C
ATOM     46  C2  BGC C   4      26.004   7.719   4.6010  0.00  0.00     0.000 C
ATOM     47  C3  BGC C   4      24.671   7.190   4.0570  0.00  0.00     0.000 C
ATOM     48  C4  BGC C   4      23.485   8.132   4.0020  0.00  0.00     0.000 C
ATOM     49  C5  BGC C   4      23.925   9.325   3.1400  0.00  0.00     0.000 C
ATOM     50  O5  BGC C   4      25.077   9.906   3.6450  0.00  0.00     0.000 O
ATOM     51   O  BGC C   4      27.009   6.553   4.5870  0.00  0.00     0.000 O
ATOM     53  HD  BGC C   4      26.700   5.863   5.0090  0.00  0.00     0.000 HD
ATOM     53   O  BGC C   4      24.320   6.214   5.1460  0.00  0.00     0.000 O
ATOM     55  HD  BGC C   4      24.011   5.524   5.5680  0.00  0.00     0.000 HD
ATOM     55   C  BGC C   4      22.887  10.417   3.1420  0.00  0.00     0.000 C
ATOM     56   O  BGC C   4      22.513  10.913   4.4330  0.00  0.00     0.000 O
ATOM     58  HD  BGC C   4      22.204  10.223   4.8550  0.00  0.00     0.000 HD
BRANCH 45 58
ATOM     58  O4  BGC C   5      27.243   9.813   4.2530  0.00  0.00     0.000 O
BRANCH 58 62
ATOM     59  C1  BGC C   5      29.186  11.798   5.5330  0.00  0.00     0.000 C
ATOM     60  C2  BGC C   5      29.727  10.479   5.7800  0.00  0.00     0.000 C
ATOM     61  C3  BGC C   5      28.684   9.465   6.2430  0.00  0.00     0.000 C
ATOM     62  C4  BGC C   5      27.323   9.875   5.6980  0.00  0.00     0.000 C
ATOM     63  C5  BGC C   5      27.177  11.361   5.9260  0.00  0.00     0.000 C
ATOM     64  O5  BGC C   5      28.346  12.114   6.2440  0.00  0.00     0.000 O
ATOM     65   O  BGC C   5      26.482  11.173   8.2320  0.00  0.00     0.000 O
ATOM     67  HD  BGC C   5      26.237  11.238   7.4040  0.00  0.00     0.000 HD
ATOM     67   O  BGC C   5      26.482  11.173   8.2320  0.00  0.00     0.000 O
ATOM     69  HD  BGC C   5      26.237  11.238   7.4040  0.00  0.00     0.000 HD
ENDBRANCH 58 62
ENDBRANCH 45 58
ENDBRANCH 44 48
ENDBRANCH 31 44
ENDBRANCH 30 34
ENDBRANCH 17 30
ENDBRANCH 16 20
ENDBRANCH 1 16
TORSDOF 8
ENDMDL
MODEL 17
REMARK VINA RESULT:      -3.2      2.445      4.281
ROOT
ATOM      1  C1  BGC C   1       7.411   3.295   6.5360  0.00  0.00     0.000 C
ATOM      2  C2  BGC C   1       6.460   2.127   6.2760  0.00  0.00     0.000 C
ATOM      3  C3  BGC C   1       5.041   2.646   6.0690  0.00  0.00     0.000 C
ATOM      4  C4  BGC C   1       4.609   3.595   7.1740  0.00  0.00     0.000 C
ATOM      5  C5  BGC C   1       5.706   4.619   7.4500  0.00  0.00     0.000 C
ATOM      6  O5  BGC C   1       6.973   4.061   7.5930  0.00  0.00     0.000 O
ATOM      7   O  BGC C   1       6.911   1.464   5.1190  0.00  0.00     0.000 O
ATOM      9  HD  BGC C   1       6.377   1.143   5.7200  0.00  0.00     0.000 HD
ATOM      9   O  BGC C   1       4.166   1.515   5.9590  0.00  0.00     0.000 O
ATOM     11  HD  BGC C   1       3.632   1.194   6.5600  0.00  0.00     0.000 HD
ATOM     11   O  BGC C   1       3.416   4.230   6.7280  0.00  0.00     0.000 O
ATOM     13  HD  BGC C   1       2.882   3.909   7.3290  0.00  0.00     0.000 HD
ATOM     13   O  BGC C   1       5.444   4.496   9.9100  0.00  0.00     0.000 O
ATOM     15  HD  BGC C   1       4.910   4.175  10.5110  0.00  0.00     0.000 HD
ATOM     15   C  BGC C   1       5.350   5.366   8.7480  0.00  0.00     0.000 C
ENDROOT
BRANCH 1 16
ATOM     16  O4  BGC C   2       8.670   2.778   6.8960  0.00  0.00     0.000 O
BRANCH 16 20
ATOM     17  C1  BGC C   2      12.603   3.814   6.5270  0.00  0.00     0.000 C
ATOM     18  C2  BGC C   2      11.829   4.521   7.6290  0.00  0.00     0.000 C
ATOM     19  C3  BGC C   2      10.514   3.808   7.9080  0.00  0.00     0.000 C
ATOM     20  C4  BGC C   2       9.768   3.617   6.6300  0.00  0.00     0.000 C
ATOM     21  C5  BGC C   2      10.655   2.972   5.5700  0.00  0.00     0.000 C
ATOM     22  O5  BGC C   2      11.819   3.717   5.3720  0.00  0.00     0.000 O
ATOM     23   O  BGC C   2      12.641   4.559   8.8130  0.00  0.00     0.000 O
ATOM     25  HD  BGC C   2      12.154   4.404   9.5120  0.00  0.00     0.000 HD
ATOM     25   O  BGC C   2       9.738   4.594   8.8050  0.00  0.00     0.000 O
ATOM     27  HD  BGC C   2       9.251   4.439   9.5050  0.00  0.00     0.000 HD
ATOM     27   C  BGC C   2       9.973   2.752   4.2040  0.00  0.00     0.000 C
ATOM     28   O  BGC C   2       9.413   3.975   3.6990  0.00  0.00     0.000 O
ATOM     30  HD  BGC C   2       8.925   3.820   4.3980  0.00  0.00     0.000 HD
BRANCH 17 30
ATOM     30  O4  BGC C   3      13.763   4.558   6.2210  0.00  0.00     0.000 O
BRANCH 30 34
ATOM     31  C1  BGC C   3      17.570   4.000   4.9820  0.00  0.00     0.000 C
ATOM     32  C2  BGC C   3      16.524   4.214   3.8620  0.00  0.00     0.000 C
ATOM     33  C3  BGC C   3      15.247   4.748   4.4120  0.00  0.00     0.000 C
ATOM     34  C4  BGC C   3      14.808   3.851   5.5720  0.00  0.00     0.000 C
ATOM     35  C5  BGC C   3      15.932   3.566   6.6010  0.00  0.00     0.000 C
ATOM     36  O5  BGC C   3      17.083   3.097   5.9450  0.00  0.00     0.000 O
ATOM     37   O  BGC C   3      16.870   5.045   2.7700  0.00  0.00     0.000 O
ATOM     39  HD  BGC C   3      16.245   4.796   3.3160  0.00  0.00     0.000 HD
ATOM     39   O  BGC C   3      14.230   4.794   3.3680  0.00  0.00     0.000 O
ATOM     41  HD  BGC C   3      13.605   4.545   3.9140  0.00  0.00     0.000 HD
ATOM     41   C  BGC C   3      15.579   2.521   7.6840  0.00  0.00     0.000 C
ATOM     42   O  BGC C   3      15.333   1.158   7.1840  0.00  0.00     0.000 O
ATOM     44  HD  BGC C   3      14.708   0.909   7.7290  0.00  0.00     0.000 HD
BRANCH 31 44
ATOM     44  O4  BGC C   4      18.759   3.503   4.4650  0.00  0.00     0.000 O
BRANCH 44 48
ATOM     45  C1  BGC C   4      22.838   3.598   4.7970  0.00  0.00     0.000 C
ATOM     46  C2  BGC C   4      22.195   2.740   5.9330  0.00  0.00     0.000 C
ATOM     47  C3  BGC C   4      20.750   2.590   5.4390  0.00  0.00     0.000 C
ATOM     48  C4  BGC C   4      19.989   3.838   5.0370  0.00  0.00     0.000 C
ATOM     49  C5  BGC C   4      20.818   4.507   3.9290  0.00  0.00     0.000 C
ATOM     50  O5  BGC C   4      22.112   4.755   4.3560  0.00  0.00     0.000 O
ATOM     51   O  BGC C   4      22.703   1.337   6.3130  0.00  0.00     0.000 O
ATOM     53  HD  BGC C   4      22.172   0.949   6.8760  0.00  0.00     0.000 HD
ATOM     53   O  BGC C   4      20.088   2.147   6.7150  0.00  0.00     0.000 O
ATOM     55  HD  BGC C   4      19.556   1.759   7.2770  0.00  0.00     0.000 HD
ATOM     55   C  BGC C   4      20.251   5.852   3.5540  0.00  0.00     0.000 C
ATOM     56   O  BGC C   4      20.109   6.786   4.6310  0.00  0.00     0.000 O
ATOM     58  HD  BGC C   4      19.577   6.398   5.1930  0.00  0.00     0.000 HD
BRANCH 45 58
ATOM     58  O4  BGC C   5      24.106   4.069   5.1460  0.00  0.00     0.000 O
BRANCH 58 62
ATOM     59  C1  BGC C   5      26.653   5.518   6.0200  0.00  0.00     0.000 C
ATOM     60  C2  BGC C   5      26.706   4.202   6.6170  0.00  0.00     0.000 C
ATOM     61  C3  BGC C   5      25.388   3.761   7.2480  0.00  0.00     0.000 C
ATOM     62  C4  BGC C   5      24.241   4.463   6.5340  0.00  0.00     0.000 C
ATOM     63  C5  BGC C   5      24.630   5.915   6.3800  0.00  0.00     0.000 C
ATOM     64  O5  BGC C   5      25.997   6.273   6.5770  0.00  0.00     0.000 O
ATOM     65   O  BGC C   5      23.976   6.566   8.6120  0.00  0.00     0.000 O
ATOM     67  HD  BGC C   5      23.747   6.500   7.7800  0.00  0.00     0.000 HD
ATOM     67   O  BGC C   5      23.976   6.566   8.6120  0.00  0.00     0.000 O
ATOM     69  HD  BGC C   5      23.747   6.500   7.7800  0.00  0.00     0.000 HD
ENDBRANCH 58 62
ENDBRANCH 45 58
ENDBRANCH 44 48
ENDBRANCH 31 44
ENDBRANCH 30 34
ENDBRANCH 17 30
ENDBRANCH 16 20
ENDBRANCH 1 16
TORSDOF 8
ENDMDL
MODEL 18
REMARK VINA RESULT:      -3.0      4.643     17.309
ROOT
ATOM      1  C1  BGC C   1      31.109   4.818   4.7460  0.00  0.00     0.000 C
ATOM      2  C2  BGC C   1      32.187   4.012   4.0230  0.00  0.00     0.000 C
ATOM      3  C3  BGC C   1      33.515   4.138   4.7590  0.00  0.00     0.000 C
ATOM      4  C4  BGC C   1      33.877   5.585   5.0480  0.00  0.00     0.000 C
ATOM      5  C5  BGC C   1      32.674   6.326   5.6230  0.00  0.00     0.000 C
ATOM      6  O5  BGC C   1      31.497   6.128   4.9060  0.00  0.00     0.000 O
ATOM      7   O  BGC C   1      31.766   2.668   3.9990  0.00  0.00     0.000 O
ATOM      9  HD  BGC C   1      32.366   3.028   3.4890  0.00  0.00     0.000 HD
ATOM      9   O  BGC C   1      34.521   3.478   3.9780  0.00  0.00     0.000 O
ATOM     11  HD  BGC C   1      35.121   3.838   3.4680  0.00  0.00     0.000 HD
ATOM     11   O  BGC C   1      34.956   5.562   5.9760  0.00  0.00     0.000 O
ATOM     13  HD  BGC C   1      35.556   5.921   5.4660  0.00  0.00     0.000 HD
ATOM     13   O  BGC C   1      33.072   8.371   4.2820  0.00  0.00     0.000 O
ATOM     15  HD  BGC C   1      33.672   8.731   3.7710  0.00  0.00     0.000 HD
ATOM     15   C  BGC C   1      32.997   7.831   5.6310  0.00  0.00     0.000 C
ENDROOT
BRANCH 1 16
ATOM     16  O4  BGC C   2      29.945   4.827   3.9530  0.00  0.00     0.000 O
BRANCH 16 20
ATOM     17  C1  BGC C   2      25.910   5.039   4.5430  0.00  0.00     0.000 C
ATOM     18  C2  BGC C   2      26.635   6.370   4.4240  0.00  0.00     0.000 C
ATOM     19  C3  BGC C   2      28.032   6.175   3.8520  0.00  0.00     0.000 C
ATOM     20  C4  BGC C   2      28.750   5.127   4.6340  0.00  0.00     0.000 C
ATOM     21  C5  BGC C   2      27.906   3.862   4.7590  0.00  0.00     0.000 C
ATOM     22  O5  BGC C   2      26.659   4.147   5.3170  0.00  0.00     0.000 O
ATOM     23   O  BGC C   2      25.866   7.244   3.5830  0.00  0.00     0.000 O
ATOM     25  HD  BGC C   2      26.392   7.690   3.0580  0.00  0.00     0.000 HD
ATOM     25   O  BGC C   2      28.744   7.404   3.9260  0.00  0.00     0.000 O
ATOM     27  HD  BGC C   2      29.270   7.850   3.4020  0.00  0.00     0.000 HD
ATOM     27   C  BGC C   2      28.561   2.726   5.5710  0.00  0.00     0.000 C
ATOM     28   O  BGC C   2      28.961   3.181   6.8740  0.00  0.00     0.000 O
ATOM     30  HD  BGC C   2      29.487   3.627   6.3500  0.00  0.00     0.000 HD
BRANCH 17 30
ATOM     30  O4  BGC C   3      24.663   5.243   5.1720  0.00  0.00     0.000 O
BRANCH 30 34
ATOM     31  C1  BGC C   3      20.865   3.861   5.1020  0.00  0.00     0.000 C
ATOM     32  C2  BGC C   3      21.845   3.086   6.0150  0.00  0.00     0.000 C
ATOM     33  C3  BGC C   3      23.096   3.860   6.2430  0.00  0.00     0.000 C
ATOM     34  C4  BGC C   3      23.651   4.291   4.8820  0.00  0.00     0.000 C
ATOM     35  C5  BGC C   3      22.596   4.950   3.9580  0.00  0.00     0.000 C
ATOM     36  O5  BGC C   3      21.460   4.128   3.8560  0.00  0.00     0.000 O
ATOM     37   O  BGC C   3      21.390   2.674   7.2910  0.00  0.00     0.000 O
ATOM     39  HD  BGC C   3      22.054   2.982   6.8280  0.00  0.00     0.000 HD
ATOM     39   O  BGC C   3      24.064   3.050   6.9720  0.00  0.00     0.000 O
ATOM     41  HD  BGC C   3      24.728   3.358   6.5100  0.00  0.00     0.000 HD
ATOM     41   C  BGC C   3      23.073   5.231   2.5140  0.00  0.00     0.000 C
ATOM     42   O  BGC C   3      23.405   4.037   1.7200  0.00  0.00     0.000 O
ATOM     44  HD  BGC C   3      24.069   4.345   1.2570  0.00  0.00     0.000 HD
BRANCH 31 44
ATOM     44  O4  BGC C   4      19.699   3.137   4.8940  0.00  0.00     0.000 O
BRANCH 44 48
ATOM     45  C1  BGC C   4      15.728   3.754   4.1130  0.00  0.00     0.000 C
ATOM     46  C2  BGC C   4      16.595   4.968   3.6480  0.00  0.00     0.000 C
ATOM     47  C3  BGC C   4      18.016   4.399   3.7450  0.00  0.00     0.000 C
ATOM     48  C4  BGC C   4      18.444   3.734   5.0380  0.00  0.00     0.000 C
ATOM     49  C5  BGC C   4      17.443   2.594   5.2850  0.00  0.00     0.000 C
ATOM     50  O5  BGC C   4      16.142   3.070   5.3050  0.00  0.00     0.000 O
ATOM     51   O  BGC C   4      16.448   5.618   2.2600  0.00  0.00     0.000 O
ATOM     53  HD  BGC C   4      17.075   6.197   2.1130  0.00  0.00     0.000 HD
ATOM     53   O  BGC C   4      18.807   5.678   3.7060  0.00  0.00     0.000 O
ATOM     55  HD  BGC C   4      19.434   6.257   3.5590  0.00  0.00     0.000 HD
ATOM     55   C  BGC C   4      17.660   1.955   6.6320  0.00  0.00     0.000 C
ATOM     56   O  BGC C   4      17.611   2.843   7.7550  0.00  0.00     0.000 O
ATOM     58  HD  BGC C   4      18.238   3.422   7.6080  0.00  0.00     0.000 HD
BRANCH 45 58
ATOM     58  O4  BGC C   5      14.397   4.113   4.3380  0.00  0.00     0.000 O
BRANCH 58 62
ATOM     59  C1  BGC C   5      11.530   5.174   4.4380  0.00  0.00     0.000 C
ATOM     60  C2  BGC C   5      11.446   3.747   4.6650  0.00  0.00     0.000 C
ATOM     61  C3  BGC C   5      12.311   2.923   3.7140  0.00  0.00     0.000 C
ATOM     62  C4  BGC C   5      13.490   3.771   3.2600  0.00  0.00     0.000 C
ATOM     63  C5  BGC C   5      12.950   5.136   2.9010  0.00  0.00     0.000 C
ATOM     64  O5  BGC C   5      11.637   5.480   3.3400  0.00  0.00     0.000 O
ATOM     65   O  BGC C   5      12.215   4.516   0.6850  0.00  0.00     0.000 O
ATOM     67  HD  BGC C   5      12.847   4.853   1.1720  0.00  0.00     0.000 HD
ATOM     67   O  BGC C   5      12.215   4.516   0.6850  0.00  0.00     0.000 O
ATOM     69  HD  BGC C   5      12.847   4.853   1.1720  0.00  0.00     0.000 HD
ENDBRANCH 58 62
ENDBRANCH 45 58
ENDBRANCH 44 48
ENDBRANCH 31 44
ENDBRANCH 30 34
ENDBRANCH 17 30
ENDBRANCH 16 20
ENDBRANCH 1 16
TORSDOF 8
ENDMDL
MODEL 19
REMARK VINA RESULT:      -3.0      8.238     14.403
ROOT
ATOM      1  C1  BGC C   1      13.038   4.058   3.9690  0.00  0.00     0.000 C
ATOM      2  C2  BGC C   1      14.414   3.852   3.3360  0.00  0.00     0.000 C
ATOM      3  C3  BGC C   1      14.697   4.962   2.3310  0.00  0.00     0.000 C
ATOM      4  C4  BGC C   1      13.556   5.149   1.3440  0.00  0.00     0.000 C
ATOM      5  C5  BGC C   1      12.221   5.183   2.0820  0.00  0.00     0.000 C
ATOM      6  O5  BGC C   1      12.061   4.152   3.0040  0.00  0.00     0.000 O
ATOM      7   O  BGC C   1      15.364   3.879   4.3740  0.00  0.00     0.000 O
ATOM      9  HD  BGC C   1      15.479   3.551   3.5810  0.00  0.00     0.000 HD
ATOM      9   O  BGC C   1      15.933   4.659   1.6700  0.00  0.00     0.000 O
ATOM     11  HD  BGC C   1      16.048   4.331   0.8770  0.00  0.00     0.000 HD
ATOM     11   O  BGC C   1      13.797   6.375   0.6640  0.00  0.00     0.000 O
ATOM     13  HD  BGC C   1      13.911   6.047  -0.1300  0.00  0.00     0.000 HD
ATOM     13   O  BGC C   1      11.059   3.777   0.4050  0.00  0.00     0.000 O
ATOM     15  HD  BGC C   1      11.174   3.449  -0.3880  0.00  0.00     0.000 HD
ATOM     15   C  BGC C   1      11.093   5.086   1.0380  0.00  0.00     0.000 C
ENDROOT
BRANCH 1 16
ATOM     16  O4  BGC C   2      12.732   2.931   4.7560  0.00  0.00     0.000 O
BRANCH 16 20
ATOM     17  C1  BGC C   2       9.914   1.990   7.5580  0.00  0.00     0.000 C
ATOM     18  C2  BGC C   2       9.634   1.505   6.1450  0.00  0.00     0.000 C
ATOM     19  C3  BGC C   2      10.888   1.587   5.2870  0.00  0.00     0.000 C
ATOM     20  C4  BGC C   2      11.473   2.956   5.3850  0.00  0.00     0.000 C
ATOM     21  C5  BGC C   2      11.642   3.376   6.8420  0.00  0.00     0.000 C
ATOM     22  O5  BGC C   2      10.431   3.290   7.5300  0.00  0.00     0.000 O
ATOM     23   O  BGC C   2       9.154   0.153   6.2050  0.00  0.00     0.000 O
ATOM     25  HD  BGC C   2       9.500  -0.313   5.5630  0.00  0.00     0.000 HD
ATOM     25   O  BGC C   2      10.549   1.304   3.9350  0.00  0.00     0.000 O
ATOM     27  HD  BGC C   2      10.895   0.837   3.2920  0.00  0.00     0.000 HD
ATOM     27   C  BGC C   2      12.224   4.791   7.0430  0.00  0.00     0.000 C
ATOM     28   O  BGC C   2      11.455   5.775   6.3340  0.00  0.00     0.000 O
ATOM     30  HD  BGC C   2      11.801   5.308   5.6910  0.00  0.00     0.000 HD
BRANCH 17 30
ATOM     30  O4  BGC C   3       8.710   2.001   8.2950  0.00  0.00     0.000 O
BRANCH 30 34
ATOM     31  C1  BGC C   3       7.402   2.467  12.0910  0.00  0.00     0.000 C
ATOM     32  C2  BGC C   3       7.475   3.759  11.2430  0.00  0.00     0.000 C
ATOM     33  C3  BGC C   3       7.626   3.446   9.7950  0.00  0.00     0.000 C
ATOM     34  C4  BGC C   3       8.796   2.472   9.6310  0.00  0.00     0.000 C
ATOM     35  C5  BGC C   3       8.738   1.258  10.5920  0.00  0.00     0.000 C
ATOM     36  O5  BGC C   3       8.566   1.697  11.9170  0.00  0.00     0.000 O
ATOM     37   O  BGC C   3       6.414   4.690  11.3440  0.00  0.00     0.000 O
ATOM     39  HD  BGC C   3       6.987   4.306  10.8210  0.00  0.00     0.000 HD
ATOM     39   O  BGC C   3       7.849   4.670   9.0350  0.00  0.00     0.000 O
ATOM     41  HD  BGC C   3       8.422   4.285   8.5110  0.00  0.00     0.000 HD
ATOM     41   C  BGC C   3       9.992   0.353  10.5820  0.00  0.00     0.000 C
ATOM     42   O  BGC C   3      11.233   0.996  11.0480  0.00  0.00     0.000 O
ATOM     44  HD  BGC C   3      11.805   0.611  10.5250  0.00  0.00     0.000 HD
BRANCH 31 44
ATOM     44  O4  BGC C   4       7.260   2.764  13.4400  0.00  0.00     0.000 O
BRANCH 44 48
ATOM     45  C1  BGC C   4       5.652   1.503  16.9870  0.00  0.00     0.000 C
ATOM     46  C2  BGC C   4       6.781   0.539  16.5000  0.00  0.00     0.000 C
ATOM     47  C3  BGC C   4       7.426   1.351  15.3690  0.00  0.00     0.000 C
ATOM     48  C4  BGC C   4       6.531   1.927  14.2890  0.00  0.00     0.000 C
ATOM     49  C5  BGC C   4       5.510   2.820  15.0110  0.00  0.00     0.000 C
ATOM     50  O5  BGC C   4       4.825   2.108  15.9820  0.00  0.00     0.000 O
ATOM     51   O  BGC C   4       7.911   0.041  17.4180  0.00  0.00     0.000 O
ATOM     53  HD  BGC C   4       8.517  -0.388  16.9710  0.00  0.00     0.000 HD
ATOM     53   O  BGC C   4       8.190   0.258  14.6730  0.00  0.00     0.000 O
ATOM     55  HD  BGC C   4       8.795  -0.170  14.2260  0.00  0.00     0.000 HD
ATOM     55   C  BGC C   4       4.455   3.326  14.0610  0.00  0.00     0.000 C
ATOM     56   O  BGC C   4       3.736   2.319  13.3400  0.00  0.00     0.000 O
ATOM     58  HD  BGC C   4       4.342   1.890  12.8930  0.00  0.00     0.000 HD
BRANCH 45 58
ATOM     58  O4  BGC C   5       4.766   0.875  17.8650  0.00  0.00     0.000 O
BRANCH 58 62
ATOM     59  C1  BGC C   5       2.476  -0.012  19.6880  0.00  0.00     0.000 C
ATOM     60  C2  BGC C   5       2.102   1.283  19.1620  0.00  0.00     0.000 C
ATOM     61  C3  BGC C   5       3.233   2.307  19.1910  0.00  0.00     0.000 C
ATOM     62  C4  BGC C   5       4.564   1.572  19.1190  0.00  0.00     0.000 C
ATOM     63  C5  BGC C   5       4.487   0.409  20.0810  0.00  0.00     0.000 C
ATOM     64  O5  BGC C   5       3.205   0.019  20.5700  0.00  0.00     0.000 O
ATOM     65   O  BGC C   5       5.018   1.703  22.0500  0.00  0.00     0.000 O
ATOM     67  HD  BGC C   5       5.316   1.202  21.4100  0.00  0.00     0.000 HD
ATOM     67   O  BGC C   5       5.018   1.703  22.0500  0.00  0.00     0.000 O
ATOM     69  HD  BGC C   5       5.316   1.202  21.4100  0.00  0.00     0.000 HD
ENDBRANCH 58 62
ENDBRANCH 45 58
ENDBRANCH 44 48
ENDBRANCH 31 44
ENDBRANCH 30 34
ENDBRANCH 17 30
ENDBRANCH 16 20
ENDBRANCH 1 16
TORSDOF 8
ENDMDL
MODEL 20
REMARK VINA RESULT:      -2.9      6.373     13.444
ROOT
ATOM      1  C1  BGC C   1      19.911   4.388  15.7970  0.00  0.00     0.000 C
ATOM      2  C2  BGC C   1      21.407   4.509  16.0830  0.00  0.00     0.000 C
ATOM      3  C3  BGC C   1      21.683   4.211  17.5520  0.00  0.00     0.000 C
ATOM      4  C4  BGC C   1      20.783   5.010  18.4800  0.00  0.00     0.000 C
ATOM      5  C5  BGC C   1      19.335   4.939  18.0010  0.00  0.00     0.000 C
ATOM      6  O5  BGC C   1      19.180   5.192  16.6410  0.00  0.00     0.000 O
ATOM      7   O  BGC C   1      22.071   3.578  15.2620  0.00  0.00     0.000 O
ATOM      9  HD  BGC C   1      22.426   4.264  15.6520  0.00  0.00     0.000 HD
ATOM      9   O  BGC C   1      23.072   4.463  17.8040  0.00  0.00     0.000 O
ATOM     11  HD  BGC C   1      23.427   5.150  18.1940  0.00  0.00     0.000 HD
ATOM     11   O  BGC C   1      20.921   4.441  19.7780  0.00  0.00     0.000 O
ATOM     13  HD  BGC C   1      21.277   5.128  20.1680  0.00  0.00     0.000 HD
ATOM     13   O  BGC C   1      18.892   7.338  18.4340  0.00  0.00     0.000 O
ATOM     15  HD  BGC C   1      19.247   8.025  18.8240  0.00  0.00     0.000 HD
ATOM     15   C  BGC C   1      18.518   5.978  18.7910  0.00  0.00     0.000 C
ENDROOT
BRANCH 1 16
ATOM     16  O4  BGC C   2      19.665   4.837  14.4850  0.00  0.00     0.000 O
BRANCH 16 20
ATOM     17  C1  BGC C   2      17.172   3.951  11.3750  0.00  0.00     0.000 C
ATOM     18  C2  BGC C   2      16.552   4.734  12.5210  0.00  0.00     0.000 C
ATOM     19  C3  BGC C   2      17.631   5.313  13.4250  0.00  0.00     0.000 C
ATOM     20  C4  BGC C   2      18.576   4.232  13.8310  0.00  0.00     0.000 C
ATOM     21  C5  BGC C   2      19.079   3.459  12.6150  0.00  0.00     0.000 C
ATOM     22  O5  BGC C   2      18.013   2.950  11.8720  0.00  0.00     0.000 O
ATOM     23   O  BGC C   2      15.737   5.784  11.9780  0.00  0.00     0.000 O
ATOM     25  HD  BGC C   2      15.837   6.508  12.4420  0.00  0.00     0.000 HD
ATOM     25   O  BGC C   2      17.021   5.877  14.5800  0.00  0.00     0.000 O
ATOM     27  HD  BGC C   2      17.120   6.601  15.0440  0.00  0.00     0.000 HD
ATOM     27   C  BGC C   2      20.050   2.305  12.9400  0.00  0.00     0.000 C
ATOM     28   O  BGC C   2      19.478   1.398  13.8970  0.00  0.00     0.000 O
ATOM     30  HD  BGC C   2      19.578   2.122  14.3610  0.00  0.00     0.000 HD
BRANCH 17 30
ATOM     30  O4  BGC C   3      16.147   3.343  10.6180  0.00  0.00     0.000 O
BRANCH 30 34
ATOM     31  C1  BGC C   3      15.126   2.568   6.7850  0.00  0.00     0.000 C
ATOM     32  C2  BGC C   3      16.058   1.530   7.4540  0.00  0.00     0.000 C
ATOM     33  C3  BGC C   3      16.093   1.710   8.9320  0.00  0.00     0.000 C
ATOM     34  C4  BGC C   3      16.404   3.178   9.2320  0.00  0.00     0.000 C
ATOM     35  C5  BGC C   3      15.523   4.179   8.4400  0.00  0.00     0.000 C
ATOM     36  O5  BGC C   3      15.560   3.875   7.0680  0.00  0.00     0.000 O
ATOM     37   O  BGC C   3      15.810   0.156   7.2220  0.00  0.00     0.000 O
ATOM     39  HD  BGC C   3      16.054   0.757   7.7960  0.00  0.00     0.000 HD
ATOM     39   O  BGC C   3      17.092   0.829   9.5230  0.00  0.00     0.000 O
ATOM     41  HD  BGC C   3      17.337   1.429  10.0970  0.00  0.00     0.000 HD
ATOM     41   C  BGC C   3      15.930   5.664   8.5790  0.00  0.00     0.000 C
ATOM     42   O  BGC C   3      17.258   6.003   8.0410  0.00  0.00     0.000 O
ATOM     44  HD  BGC C   3      17.503   6.604   8.6150  0.00  0.00     0.000 HD
BRANCH 31 44
ATOM     44  O4  BGC C   4      15.095   2.396   5.4080  0.00  0.00     0.000 O
BRANCH 44 48
ATOM     45  C1  BGC C   4      13.465   3.767   1.9110  0.00  0.00     0.000 C
ATOM     46  C2  BGC C   4      14.600   4.712   2.4190  0.00  0.00     0.000 C
ATOM     47  C3  BGC C   4      15.251   3.865   3.5200  0.00  0.00     0.000 C
ATOM     48  C4  BGC C   4      14.363   3.259   4.5890  0.00  0.00     0.000 C
ATOM     49  C5  BGC C   4      13.332   2.392   3.8490  0.00  0.00     0.000 C
ATOM     50  O5  BGC C   4      12.643   3.135   2.9050  0.00  0.00     0.000 O
ATOM     51   O  BGC C   4      15.726   5.234   1.5070  0.00  0.00     0.000 O
ATOM     53  HD  BGC C   4      16.336   5.647   1.9620  0.00  0.00     0.000 HD
ATOM     53   O  BGC C   4      16.024   4.934   4.2420  0.00  0.00     0.000 O
ATOM     55  HD  BGC C   4      16.635   5.347   4.6970  0.00  0.00     0.000 HD
ATOM     55   C  BGC C   4      12.283   1.862   4.7910  0.00  0.00     0.000 C
ATOM     56   O  BGC C   4      11.573   2.849   5.5480  0.00  0.00     0.000 O
ATOM     58  HD  BGC C   4      12.184   3.263   6.0020  0.00  0.00     0.000 HD
BRANCH 45 58
ATOM     58  O4  BGC C   5      12.574   4.423   1.0590  0.00  0.00     0.000 O
BRANCH 58 62
ATOM     59  C1  BGC C   5      11.589   7.115  -0.0080  0.00  0.00     0.000 C
ATOM     60  C2  BGC C   5      12.231   7.387   1.2590  0.00  0.00     0.000 C
ATOM     61  C3  BGC C   5      11.849   6.405   2.3640  0.00  0.00     0.000 C
ATOM     62  C4  BGC C   5      11.468   5.075   1.7300  0.00  0.00     0.000 C
ATOM     63  C5  BGC C   5      10.565   5.380   0.5570  0.00  0.00     0.000 C
ATOM     64  O5  BGC C   5      10.518   6.719   0.0700  0.00  0.00     0.000 O
ATOM     65   O  BGC C   5       8.553   5.621   1.8720  0.00  0.00     0.000 O
ATOM     67  HD  BGC C   5       9.052   5.094   1.4000  0.00  0.00     0.000 HD
ATOM     67   O  BGC C   5       8.553   5.621   1.8720  0.00  0.00     0.000 O
ATOM     69  HD  BGC C   5       9.052   5.094   1.4000  0.00  0.00     0.000 HD
ENDBRANCH 58 62
ENDBRANCH 45 58
ENDBRANCH 44 48
ENDBRANCH 31 44
ENDBRANCH 30 34
ENDBRANCH 17 30
ENDBRANCH 16 20
ENDBRANCH 1 16
TORSDOF 8
ENDMDL
MODEL 21
REMARK VINA RESULT:      -2.9      8.233     14.854
ROOT
ATOM      1  C1  BGC C   1      20.374  16.898  10.3210  0.00  0.00     0.000 C
ATOM      2  C2  BGC C   1      21.742  17.572  10.2240  0.00  0.00     0.000 C
ATOM      3  C3  BGC C   1      21.986  18.437  11.4550  0.00  0.00     0.000 C
ATOM      4  C4  BGC C   1      20.824  19.374  11.7390  0.00  0.00     0.000 C
ATOM      5  C5  BGC C   1      19.502  18.617  11.6540  0.00  0.00     0.000 C
ATOM      6  O5  BGC C   1      19.379  17.828  10.5140  0.00  0.00     0.000 O
ATOM      7   O  BGC C   1      22.711  16.554  10.1430  0.00  0.00     0.000 O
ATOM      9  HD  BGC C   1      22.817  17.383   9.9180  0.00  0.00     0.000 HD
ATOM      9   O  BGC C   1      23.215  19.150  11.2620  0.00  0.00     0.000 O
ATOM     11  HD  BGC C   1      23.321  19.979  11.0370  0.00  0.00     0.000 HD
ATOM     11   O  BGC C   1      21.029  19.901  13.0450  0.00  0.00     0.000 O
ATOM     13  HD  BGC C   1      21.135  20.731  12.8200  0.00  0.00     0.000 HD
ATOM     13   O  BGC C   1      18.336  20.437  10.4420  0.00  0.00     0.000 O
ATOM     15  HD  BGC C   1      18.442  21.267  10.2180  0.00  0.00     0.000 HD
ATOM     15   C  BGC C   1      18.358  19.647  11.6640  0.00  0.00     0.000 C
ENDROOT
BRANCH 1 16
ATOM     16  O4  BGC C   2      20.104  16.252   9.1000  0.00  0.00     0.000 O
BRANCH 16 20
ATOM     17  C1  BGC C   2      18.095  12.941   7.8040  0.00  0.00     0.000 C
ATOM     18  C2  BGC C   2      17.248  14.180   8.0470  0.00  0.00     0.000 C
ATOM     19  C3  BGC C   2      18.124  15.418   8.1650  0.00  0.00     0.000 C
ATOM     20  C4  BGC C   2      19.199  15.176   9.1710  0.00  0.00     0.000 C
ATOM     21  C5  BGC C   2      19.937  13.872   8.8810  0.00  0.00     0.000 C
ATOM     22  O5  BGC C   2      19.047  12.798   8.8190  0.00  0.00     0.000 O
ATOM     23   O  BGC C   2      16.317  14.325   6.9630  0.00  0.00     0.000 O
ATOM     25  HD  BGC C   2      16.249  15.159   6.7400  0.00  0.00     0.000 HD
ATOM     25   O  BGC C   2      17.322  16.520   8.5740  0.00  0.00     0.000 O
ATOM     27  HD  BGC C   2      17.253  17.355   8.3510  0.00  0.00     0.000 HD
ATOM     27   C  BGC C   2      21.057  13.527   9.8830  0.00  0.00     0.000 C
ATOM     28   O  BGC C   2      20.565  13.523  11.2330  0.00  0.00     0.000 O
ATOM     30  HD  BGC C   2      20.496  14.357  11.0100  0.00  0.00     0.000 HD
BRANCH 17 30
ATOM     30  O4  BGC C   3      17.263  11.800   7.8040  0.00  0.00     0.000 O
BRANCH 30 34
ATOM     31  C1  BGC C   3      16.832   8.203   6.0120  0.00  0.00     0.000 C
ATOM     32  C2  BGC C   3      17.950   8.292   7.0770  0.00  0.00     0.000 C
ATOM     33  C3  BGC C   3      17.805   9.518   7.9100  0.00  0.00     0.000 C
ATOM     34  C4  BGC C   3      17.675  10.723   6.9750  0.00  0.00     0.000 C
ATOM     35  C5  BGC C   3      16.627  10.532   5.8490  0.00  0.00     0.000 C
ATOM     36  O5  BGC C   3      16.866   9.326   5.1670  0.00  0.00     0.000 O
ATOM     37   O  BGC C   3      18.108   7.211   7.9780  0.00  0.00     0.000 O
ATOM     39  HD  BGC C   3      18.128   8.071   7.8740  0.00  0.00     0.000 HD
ATOM     39   O  BGC C   3      18.951   9.662   8.7990  0.00  0.00     0.000 O
ATOM     41  HD  BGC C   3      18.972  10.522   8.6950  0.00  0.00     0.000 HD
ATOM     41   C  BGC C   3      16.600  11.650   4.7820  0.00  0.00     0.000 C
ATOM     42   O  BGC C   3      17.826  11.780   3.9780  0.00  0.00     0.000 O
ATOM     44  HD  BGC C   3      17.846  12.640   3.8740  0.00  0.00     0.000 HD
BRANCH 31 44
ATOM     44  O4  BGC C   4      16.970   7.058   5.2390  0.00  0.00     0.000 O
BRANCH 44 48
ATOM     45  C1  BGC C   4      14.910   3.926   3.5920  0.00  0.00     0.000 C
ATOM     46  C2  BGC C   4      14.976   5.142   2.6130  0.00  0.00     0.000 C
ATOM     47  C3  BGC C   4      16.024   6.037   3.2870  0.00  0.00     0.000 C
ATOM     48  C4  BGC C   4      15.851   6.375   4.7550  0.00  0.00     0.000 C
ATOM     49  C5  BGC C   4      15.803   5.032   5.5010  0.00  0.00     0.000 C
ATOM     50  O5  BGC C   4      14.803   4.217   4.9940  0.00  0.00     0.000 O
ATOM     51   O  BGC C   4      15.368   5.003   1.1310  0.00  0.00     0.000 O
ATOM     53  HD  BGC C   4      15.471   5.777   0.7560  0.00  0.00     0.000 HD
ATOM     53   O  BGC C   4      15.750   7.333   2.5740  0.00  0.00     0.000 O
ATOM     55  HD  BGC C   4      15.853   8.106   2.1990  0.00  0.00     0.000 HD
ATOM     55   C  BGC C   4      15.468   5.224   6.9570  0.00  0.00     0.000 C
ATOM     56   O  BGC C   4      14.249   5.927   7.2250  0.00  0.00     0.000 O
ATOM     58  HD  BGC C   4      14.352   6.701   6.8500  0.00  0.00     0.000 HD
BRANCH 45 58
ATOM     58  O4  BGC C   5      13.836   3.079   3.3090  0.00  0.00     0.000 O
BRANCH 58 62
ATOM     59  C1  BGC C   5      11.005   1.926   3.4060  0.00  0.00     0.000 C
ATOM     60  C2  BGC C   5      11.556   1.551   2.1210  0.00  0.00     0.000 C
ATOM     61  C3  BGC C   5      12.286   2.688   1.4120  0.00  0.00     0.000 C
ATOM     62  C4  BGC C   5      12.819   3.659   2.4560  0.00  0.00     0.000 C
ATOM     63  C5  BGC C   5      11.712   3.895   3.4560  0.00  0.00     0.000 C
ATOM     64  O5  BGC C   5      10.604   2.997   3.4630  0.00  0.00     0.000 O
ATOM     65   O  BGC C   5      10.557   5.554   2.1330  0.00  0.00     0.000 O
ATOM     67  HD  BGC C   5      11.138   5.400   2.7570  0.00  0.00     0.000 HD
ATOM     67   O  BGC C   5      10.557   5.554   2.1330  0.00  0.00     0.000 O
ATOM     69  HD  BGC C   5      11.138   5.400   2.7570  0.00  0.00     0.000 HD
ENDBRANCH 58 62
ENDBRANCH 45 58
ENDBRANCH 44 48
ENDBRANCH 31 44
ENDBRANCH 30 34
ENDBRANCH 17 30
ENDBRANCH 16 20
ENDBRANCH 1 16
TORSDOF 8
ENDMDL
MODEL 22
REMARK VINA RESULT:      -2.9      8.686     14.240
ROOT
ATOM      1  C1  BGC C   1      17.210  17.543  11.0850  0.00  0.00     0.000 C
ATOM      2  C2  BGC C   1      18.367  18.540  11.0440  0.00  0.00     0.000 C
ATOM      3  C3  BGC C   1      18.448  19.300  12.3630  0.00  0.00     0.000 C
ATOM      4  C4  BGC C   1      17.107  19.885  12.7730  0.00  0.00     0.000 C
ATOM      5  C5  BGC C   1      16.006  18.839  12.6220  0.00  0.00     0.000 C
ATOM      6  O5  BGC C   1      16.028  18.172  11.4000  0.00  0.00     0.000 O
ATOM      7   O  BGC C   1      19.550  17.807  10.8290  0.00  0.00     0.000 O
ATOM      9  HD  BGC C   1      19.441  18.657  10.7000  0.00  0.00     0.000 HD
ATOM      9   O  BGC C   1      19.457  20.310  12.2340  0.00  0.00     0.000 O
ATOM     11  HD  BGC C   1      19.349  21.159  12.1050  0.00  0.00     0.000 HD
ATOM     11   O  BGC C   1      17.236  20.301  14.1280  0.00  0.00     0.000 O
ATOM     13  HD  BGC C   1      17.127  21.150  13.9990  0.00  0.00     0.000 HD
ATOM     13   O  BGC C   1      14.380  20.436  11.6500  0.00  0.00     0.000 O
ATOM     15  HD  BGC C   1      14.272  21.285  11.5210  0.00  0.00     0.000 HD
ATOM     15   C  BGC C   1      14.647  19.548  12.7710  0.00  0.00     0.000 C
ENDROOT
BRANCH 1 16
ATOM     16  O4  BGC C   2      17.051  16.987   9.8010  0.00  0.00     0.000 O
BRANCH 16 20
ATOM     17  C1  BGC C   2      15.825  13.457   8.1540  0.00  0.00     0.000 C
ATOM     18  C2  BGC C   2      14.720  14.411   8.5770  0.00  0.00     0.000 C
ATOM     19  C3  BGC C   2      15.278  15.806   8.8270  0.00  0.00     0.000 C
ATOM     20  C4  BGC C   2      16.437  15.720   9.7610  0.00  0.00     0.000 C
ATOM     21  C5  BGC C   2      17.449  14.681   9.2860  0.00  0.00     0.000 C
ATOM     22  O5  BGC C   2      16.842  13.436   9.1150  0.00  0.00     0.000 O
ATOM     23   O  BGC C   2      13.720  14.448   7.5480  0.00  0.00     0.000 O
ATOM     25  HD  BGC C   2      13.439  15.259   7.4360  0.00  0.00     0.000 HD
ATOM     25   O  BGC C   2      14.260  16.621   9.3950  0.00  0.00     0.000 O
ATOM     27  HD  BGC C   2      13.979  17.433   9.2820  0.00  0.00     0.000 HD
ATOM     27   C  BGC C   2      18.677  14.508  10.2040  0.00  0.00     0.000 C
ATOM     28   O  BGC C   2      18.281  14.227  11.5560  0.00  0.00     0.000 O
ATOM     30  HD  BGC C   2      18.000  15.039  11.4430  0.00  0.00     0.000 HD
BRANCH 17 30
ATOM     30  O4  BGC C   3      15.294  12.154   8.0340  0.00  0.00     0.000 O
BRANCH 30 34
ATOM     31  C1  BGC C   3      15.584   8.814   5.7750  0.00  0.00     0.000 C
ATOM     32  C2  BGC C   3      16.758   9.068   6.7520  0.00  0.00     0.000 C
ATOM     33  C3  BGC C   3      16.403  10.102   7.7630  0.00  0.00     0.000 C
ATOM     34  C4  BGC C   3      15.868  11.333   7.0280  0.00  0.00     0.000 C
ATOM     35  C5  BGC C   3      14.782  11.007   5.9710  0.00  0.00     0.000 C
ATOM     36  O5  BGC C   3      15.237  10.000   5.1030  0.00  0.00     0.000 O
ATOM     37   O  BGC C   3      17.284   7.968   7.4700  0.00  0.00     0.000 O
ATOM     39  HD  BGC C   3      17.075   8.808   7.4910  0.00  0.00     0.000 HD
ATOM     39   O  BGC C   3      17.569  10.437   8.5720  0.00  0.00     0.000 O
ATOM     41  HD  BGC C   3      17.360  11.277   8.5930  0.00  0.00     0.000 HD
ATOM     41   C  BGC C   3      14.351  12.198   5.0840  0.00  0.00     0.000 C
ATOM     42   O  BGC C   3      15.406  12.745   4.2140  0.00  0.00     0.000 O
ATOM     44  HD  BGC C   3      15.196  13.585   4.2350  0.00  0.00     0.000 HD
BRANCH 31 44
ATOM     44  O4  BGC C   4      15.919   7.849   4.8350  0.00  0.00     0.000 O
BRANCH 44 48
ATOM     45  C1  BGC C   4      14.531   4.334   3.2610  0.00  0.00     0.000 C
ATOM     46  C2  BGC C   4      14.401   5.506   2.2370  0.00  0.00     0.000 C
ATOM     47  C3  BGC C   4      15.242   6.604   2.9020  0.00  0.00     0.000 C
ATOM     48  C4  BGC C   4      14.963   6.953   4.3510  0.00  0.00     0.000 C
ATOM     49  C5  BGC C   4      15.141   5.650   5.1470  0.00  0.00     0.000 C
ATOM     50  O5  BGC C   4      14.327   4.647   4.6470  0.00  0.00     0.000 O
ATOM     51   O  BGC C   4      14.860   5.393   0.7720  0.00  0.00     0.000 O
ATOM     53  HD  BGC C   4      14.829   6.159   0.3690  0.00  0.00     0.000 HD
ATOM     53   O  BGC C   4      14.755   7.801   2.1320  0.00  0.00     0.000 O
ATOM     55  HD  BGC C   4      14.724   8.567   1.7300  0.00  0.00     0.000 HD
ATOM     55   C  BGC C   4      14.729   5.826   6.5860  0.00  0.00     0.000 C
ATOM     56   O  BGC C   4      13.393   6.297   6.7950  0.00  0.00     0.000 O
ATOM     58  HD  BGC C   4      13.362   7.064   6.3930  0.00  0.00     0.000 HD
BRANCH 45 58
ATOM     58  O4  BGC C   5      13.643   3.291   2.9840  0.00  0.00     0.000 O
BRANCH 58 62
ATOM     59  C1  BGC C   5      11.056   1.747   3.5050  0.00  0.00     0.000 C
ATOM     60  C2  BGC C   5      11.464   1.417   2.1570  0.00  0.00     0.000 C
ATOM     61  C3  BGC C   5      11.910   2.627   1.3380  0.00  0.00     0.000 C
ATOM     62  C4  BGC C   5      12.440   3.694   2.2850  0.00  0.00     0.000 C
ATOM     63  C5  BGC C   5      11.466   3.797   3.4350  0.00  0.00     0.000 C
ATOM     64  O5  BGC C   5      10.514   2.750   3.6120  0.00  0.00     0.000 O
ATOM     65   O  BGC C   5       9.902   5.234   2.2830  0.00  0.00     0.000 O
ATOM     67  HD  BGC C   5      10.583   5.183   2.8160  0.00  0.00     0.000 HD
ATOM     67   O  BGC C   5       9.902   5.234   2.2830  0.00  0.00     0.000 O
ATOM     69  HD  BGC C   5      10.583   5.183   2.8160  0.00  0.00     0.000 HD
ENDBRANCH 58 62
ENDBRANCH 45 58
ENDBRANCH 44 48
ENDBRANCH 31 44
ENDBRANCH 30 34
ENDBRANCH 17 30
ENDBRANCH 16 20
ENDBRANCH 1 16
TORSDOF 8
ENDMDL
MODEL 23
REMARK VINA RESULT:      -2.6      3.878     14.837
ROOT
ATOM      1  C1  BGC C   1      24.526   8.536   2.1570  0.00  0.00     0.000 C
ATOM      2  C2  BGC C   1      25.284   9.782   2.6140  0.00  0.00     0.000 C
ATOM      3  C3  BGC C   1      26.319  10.177   1.5670  0.00  0.00     0.000 C
ATOM      4  C4  BGC C   1      27.195   9.005   1.1540  0.00  0.00     0.000 C
ATOM      5  C5  BGC C   1      26.335   7.776   0.8740  0.00  0.00     0.000 C
ATOM      6  O5  BGC C   1      25.395   7.509   1.8670  0.00  0.00     0.000 O
ATOM      7   O  BGC C   1      24.340  10.813   2.7810  0.00  0.00     0.000 O
ATOM      9  HD  BGC C   1      25.138  10.788   3.1150  0.00  0.00     0.000 HD
ATOM      9   O  BGC C   1      27.091  11.265   2.0920  0.00  0.00     0.000 O
ATOM     11  HD  BGC C   1      27.889  11.240   2.4260  0.00  0.00     0.000 HD
ATOM     11   O  BGC C   1      27.902   9.411  -0.0120  0.00  0.00     0.000 O
ATOM     13  HD  BGC C   1      28.701   9.386   0.3220  0.00  0.00     0.000 HD
ATOM     13   O  BGC C   1      27.886   6.216   2.0120  0.00  0.00     0.000 O
ATOM     15  HD  BGC C   1      28.685   6.191   2.3470  0.00  0.00     0.000 HD
ATOM     15   C  BGC C   1      27.268   6.558   0.7410  0.00  0.00     0.000 C
ENDROOT
BRANCH 1 16
ATOM     16  O4  BGC C   2      23.707   8.095   3.2140  0.00  0.00     0.000 O
BRANCH 16 20
ATOM     17  C1  BGC C   2      20.084   6.267   3.6670  0.00  0.00     0.000 C
ATOM     18  C2  BGC C   2      21.268   5.344   3.4240  0.00  0.00     0.000 C
ATOM     19  C3  BGC C   2      22.581   6.084   3.6350  0.00  0.00     0.000 C
ATOM     20  C4  BGC C   2      22.579   7.343   2.8330  0.00  0.00     0.000 C
ATOM     21  C5  BGC C   2      21.315   8.157   3.0930  0.00  0.00     0.000 C
ATOM     22  O5  BGC C   2      20.172   7.395   2.8450  0.00  0.00     0.000 O
ATOM     23   O  BGC C   2      21.174   4.224   4.3170  0.00  0.00     0.000 O
ATOM     25  HD  BGC C   2      21.958   4.024   4.6260  0.00  0.00     0.000 HD
ATOM     25   O  BGC C   2      23.658   5.252   3.2220  0.00  0.00     0.000 O
ATOM     27  HD  BGC C   2      24.442   5.052   3.5310  0.00  0.00     0.000 HD
ATOM     27   C  BGC C   2      21.216   9.470   2.2900  0.00  0.00     0.000 C
ATOM     28   O  BGC C   2      21.367   9.232   0.8810  0.00  0.00     0.000 O
ATOM     30  HD  BGC C   2      22.151   9.032   1.1910  0.00  0.00     0.000 HD
BRANCH 17 30
ATOM     30  O4  BGC C   3      18.888   5.581   3.3610  0.00  0.00     0.000 O
BRANCH 30 34
ATOM     31  C1  BGC C   3      14.984   5.398   4.3910  0.00  0.00     0.000 C
ATOM     32  C2  BGC C   3      15.443   6.721   3.7340  0.00  0.00     0.000 C
ATOM     33  C3  BGC C   3      16.775   6.567   3.0860  0.00  0.00     0.000 C
ATOM     34  C4  BGC C   3      17.740   5.958   4.1060  0.00  0.00     0.000 C
ATOM     35  C5  BGC C   3      17.180   4.705   4.8260  0.00  0.00     0.000 C
ATOM     36  O5  BGC C   3      15.911   4.982   5.3630  0.00  0.00     0.000 O
ATOM     37   O  BGC C   3      14.597   7.324   2.7730  0.00  0.00     0.000 O
ATOM     39  HD  BGC C   3      15.412   7.146   3.0040  0.00  0.00     0.000 HD
ATOM     39   O  BGC C   3      17.258   7.859   2.6130  0.00  0.00     0.000 O
ATOM     41  HD  BGC C   3      18.073   7.682   2.8430  0.00  0.00     0.000 HD
ATOM     41   C  BGC C   3      18.049   4.172   5.9890  0.00  0.00     0.000 C
ATOM     42   O  BGC C   3      18.194   5.087   7.1340  0.00  0.00     0.000 O
ATOM     44  HD  BGC C   3      19.009   4.910   7.3640  0.00  0.00     0.000 HD
BRANCH 31 44
ATOM     44  O4  BGC C   4      13.741   5.545   4.9920  0.00  0.00     0.000 O
BRANCH 44 48
ATOM     45  C1  BGC C   4      10.688   3.523   6.8240  0.00  0.00     0.000 C
ATOM     46  C2  BGC C   4      11.804   3.915   7.8440  0.00  0.00     0.000 C
ATOM     47  C3  BGC C   4      12.651   4.900   7.0270  0.00  0.00     0.000 C
ATOM     48  C4  BGC C   4      13.128   4.477   5.6510  0.00  0.00     0.000 C
ATOM     49  C5  BGC C   4      11.863   4.134   4.8470  0.00  0.00     0.000 C
ATOM     50  O5  BGC C   4      11.106   3.173   5.4960  0.00  0.00     0.000 O
ATOM     51   O  BGC C   4      11.503   4.577   9.2010  0.00  0.00     0.000 O
ATOM     53  HD  BGC C   4      12.229   4.836   9.5960  0.00  0.00     0.000 HD
ATOM     53   O  BGC C   4      13.901   4.917   7.8630  0.00  0.00     0.000 O
ATOM     55  HD  BGC C   4      14.627   5.176   8.2570  0.00  0.00     0.000 HD
ATOM     55   C  BGC C   4      12.210   3.539   3.5060  0.00  0.00     0.000 C
ATOM     56   O  BGC C   4      13.045   2.376   3.5420  0.00  0.00     0.000 O
ATOM     58  HD  BGC C   4      13.771   2.636   3.9360  0.00  0.00     0.000 HD
BRANCH 45 58
ATOM     58  O4  BGC C   5       9.925   2.441   7.2680  0.00  0.00     0.000 O
BRANCH 58 62
ATOM     59  C1  BGC C   5       7.908   0.261   8.0000  0.00  0.00     0.000 C
ATOM     60  C2  BGC C   5       7.256   1.113   7.0290  0.00  0.00     0.000 C
ATOM     61  C3  BGC C   5       7.449   2.604   7.2920  0.00  0.00     0.000 C
ATOM     62  C4  BGC C   5       8.757   2.806   8.0440  0.00  0.00     0.000 C
ATOM     63  C5  BGC C   5       8.810   1.767   9.1400  0.00  0.00     0.000 C
ATOM     64  O5  BGC C   5       7.907   0.665   9.0710  0.00  0.00     0.000 O
ATOM     65   O  BGC C   5       7.431   3.001  10.6930  0.00  0.00     0.000 O
ATOM     67  HD  BGC C   5       8.234   2.814  10.4260  0.00  0.00     0.000 HD
ATOM     67   O  BGC C   5       7.431   3.001  10.6930  0.00  0.00     0.000 O
ATOM     69  HD  BGC C   5       8.234   2.814  10.4260  0.00  0.00     0.000 HD
ENDBRANCH 58 62
ENDBRANCH 45 58
ENDBRANCH 44 48
ENDBRANCH 31 44
ENDBRANCH 30 34
ENDBRANCH 17 30
ENDBRANCH 16 20
ENDBRANCH 1 16
TORSDOF 8
ENDMDL
MODEL 24
REMARK VINA RESULT:      -2.3      9.635     14.946
ROOT
ATOM      1  C1  BGC C   1      17.713  17.840  13.1110  0.00  0.00     0.000 C
ATOM      2  C2  BGC C   1      18.952  18.347  13.8480  0.00  0.00     0.000 C
ATOM      3  C3  BGC C   1      18.549  19.366  14.9070  0.00  0.00     0.000 C
ATOM      4  C4  BGC C   1      17.643  20.450  14.3470  0.00  0.00     0.000 C
ATOM      5  C5  BGC C   1      16.534  19.828  13.5020  0.00  0.00     0.000 C
ATOM      6  O5  BGC C   1      16.990  18.885  12.5840  0.00  0.00     0.000 O
ATOM      7   O  BGC C   1      19.571  17.236  14.4500  0.00  0.00     0.000 O
ATOM      9  HD  BGC C   1      19.937  18.004  14.2900  0.00  0.00     0.000 HD
ATOM      9   O  BGC C   1      19.745  19.910  15.4800  0.00  0.00     0.000 O
ATOM     11  HD  BGC C   1      20.111  20.678  15.3210  0.00  0.00     0.000 HD
ATOM     11   O  BGC C   1      17.103  21.152  15.4620  0.00  0.00     0.000 O
ATOM     13  HD  BGC C   1      17.470  21.921  15.3030  0.00  0.00     0.000 HD
ATOM     13   O  BGC C   1      16.689  21.543  11.7220  0.00  0.00     0.000 O
ATOM     15  HD  BGC C   1      17.055  22.312  11.5620  0.00  0.00     0.000 HD
ATOM     15   C  BGC C   1      15.825  20.958  12.7350  0.00  0.00     0.000 C
ENDROOT
BRANCH 1 16
ATOM     16  O4  BGC C   2      18.129  17.040  12.0290  0.00  0.00     0.000 O
BRANCH 16 20
ATOM     17  C1  BGC C   2      16.515  14.143   9.6460  0.00  0.00     0.000 C
ATOM     18  C2  BGC C   2      16.316  15.576   9.1780  0.00  0.00     0.000 C
ATOM     19  C3  BGC C   2      17.249  16.522   9.9210  0.00  0.00     0.000 C
ATOM     20  C4  BGC C   2      17.111  16.307  11.3910  0.00  0.00     0.000 C
ATOM     21  C5  BGC C   2      17.251  14.830  11.7450  0.00  0.00     0.000 C
ATOM     22  O5  BGC C   2      16.334  14.056  11.0300  0.00  0.00     0.000 O
ATOM     23   O  BGC C   2      16.559  15.640   7.7650  0.00  0.00     0.000 O
ATOM     25  HD  BGC C   2      16.996  16.362   7.5710  0.00  0.00     0.000 HD
ATOM     25   O  BGC C   2      16.910  17.864   9.5960  0.00  0.00     0.000 O
ATOM     27  HD  BGC C   2      17.348  18.586   9.4020  0.00  0.00     0.000 HD
ATOM     27   C  BGC C   2      17.102  14.508  13.2470  0.00  0.00     0.000 C
ATOM     28   O  BGC C   2      15.867  15.024  13.7690  0.00  0.00     0.000 O
ATOM     30  HD  BGC C   2      16.305  15.746  13.5750  0.00  0.00     0.000 HD
BRANCH 17 30
ATOM     30  O4  BGC C   3      15.566  13.311   9.0150  0.00  0.00     0.000 O
BRANCH 30 34
ATOM     31  C1  BGC C   3      15.123   9.560   7.5750  0.00  0.00     0.000 C
ATOM     32  C2  BGC C   3      14.989   9.710   9.1090  0.00  0.00     0.000 C
ATOM     33  C3  BGC C   3      14.820  11.137   9.4980  0.00  0.00     0.000 C
ATOM     34  C4  BGC C   3      15.938  11.952   8.8430  0.00  0.00     0.000 C
ATOM     35  C5  BGC C   3      16.112  11.671   7.3290  0.00  0.00     0.000 C
ATOM     36  O5  BGC C   3      16.230  10.288   7.1040  0.00  0.00     0.000 O
ATOM     37   O  BGC C   3      13.963   8.990   9.7670  0.00  0.00     0.000 O
ATOM     39  HD  BGC C   3      14.411   9.730   9.7270  0.00  0.00     0.000 HD
ATOM     39   O  BGC C   3      14.852  11.271  10.9500  0.00  0.00     0.000 O
ATOM     41  HD  BGC C   3      15.301  12.011  10.9100  0.00  0.00     0.000 HD
ATOM     41   C  BGC C   3      17.345  12.336   6.6750  0.00  0.00     0.000 C
ATOM     42   O  BGC C   3      18.648  11.871   7.1780  0.00  0.00     0.000 O
ATOM     44  HD  BGC C   3      19.097  12.610   7.1370  0.00  0.00     0.000 HD
BRANCH 31 44
ATOM     44  O4  BGC C   4      15.279   8.228   7.2160  0.00  0.00     0.000 O
BRANCH 44 48
ATOM     45  C1  BGC C   4      14.029   5.383   4.5510  0.00  0.00     0.000 C
ATOM     46  C2  BGC C   4      15.338   6.082   4.0640  0.00  0.00     0.000 C
ATOM     47  C3  BGC C   4      15.775   6.849   5.3200  0.00  0.00     0.000 C
ATOM     48  C4  BGC C   4      14.763   7.740   6.0130  0.00  0.00     0.000 C
ATOM     49  C5  BGC C   4      13.576   6.836   6.3800  0.00  0.00     0.000 C
ATOM     50  O5  BGC C   4      13.077   6.190   5.2610  0.00  0.00     0.000 O
ATOM     51   O  BGC C   4      16.561   5.304   3.5470  0.00  0.00     0.000 O
ATOM     53  HD  BGC C   4      17.242   5.825   3.4280  0.00  0.00     0.000 HD
ATOM     53   O  BGC C   4      16.755   7.809   4.7050  0.00  0.00     0.000 O
ATOM     55  HD  BGC C   4      17.437   8.331   4.5860  0.00  0.00     0.000 HD
ATOM     55   C  BGC C   4      12.425   7.637   6.9310  0.00  0.00     0.000 C
ATOM     56   O  BGC C   4      11.941   8.688   6.0870  0.00  0.00     0.000 O
ATOM     58  HD  BGC C   4      12.622   9.209   5.9680  0.00  0.00     0.000 HD
BRANCH 45 58
ATOM     58  O4  BGC C   5      13.313   4.811   3.4960  0.00  0.00     0.000 O
BRANCH 58 62
ATOM     59  C1  BGC C   5      11.501   4.236   1.1020  0.00  0.00     0.000 C
ATOM     60  C2  BGC C   5      12.646   3.363   0.9660  0.00  0.00     0.000 C
ATOM     61  C3  BGC C   5      13.980   4.056   1.2290  0.00  0.00     0.000 C
ATOM     62  C4  BGC C   5      13.750   5.224   2.1780  0.00  0.00     0.000 C
ATOM     63  C5  BGC C   5      12.525   5.962   1.6920  0.00  0.00     0.000 C
ATOM     64  O5  BGC C   5      11.672   5.312   0.7520  0.00  0.00     0.000 O
ATOM     65   O  BGC C   5      13.682   7.237  -0.0020  0.00  0.00     0.000 O
ATOM     67  HD  BGC C   5      13.389   7.211   0.8120  0.00  0.00     0.000 HD
ATOM     67   O  BGC C   5      13.682   7.237  -0.0020  0.00  0.00     0.000 O
ATOM     69  HD  BGC C   5      13.389   7.211   0.8120  0.00  0.00     0.000 HD
ENDBRANCH 58 62
ENDBRANCH 45 58
ENDBRANCH 44 48
ENDBRANCH 31 44
ENDBRANCH 30 34
ENDBRANCH 17 30
ENDBRANCH 16 20
ENDBRANCH 1 16
TORSDOF 8
ENDMDL
MODEL 25
REMARK VINA RESULT:      -2.2      9.956     15.360
ROOT
ATOM      1  C1  BGC C   1      18.095  18.862  12.0560  0.00  0.00     0.000 C
ATOM      2  C2  BGC C   1      19.222  19.888  11.9450  0.00  0.00     0.000 C
ATOM      3  C3  BGC C   1      19.462  20.547  13.2990  0.00  0.00     0.000 C
ATOM      4  C4  BGC C   1      18.176  21.066  13.9220  0.00  0.00     0.000 C
ATOM      5  C5  BGC C   1      17.081  20.007  13.8320  0.00  0.00     0.000 C
ATOM      6  O5  BGC C   1      16.954  19.436  12.5690  0.00  0.00     0.000 O
ATOM      7   O  BGC C   1      20.377  19.204  11.5230  0.00  0.00     0.000 O
ATOM      9  HD  BGC C   1      20.239  20.058  11.4760  0.00  0.00     0.000 HD
ATOM      9   O  BGC C   1      20.430  21.589  13.1200  0.00  0.00     0.000 O
ATOM     11  HD  BGC C   1      20.293  22.443  13.0740  0.00  0.00     0.000 HD
ATOM     11   O  BGC C   1      18.474  21.381  15.2770  0.00  0.00     0.000 O
ATOM     13  HD  BGC C   1      18.337  22.235  15.2310  0.00  0.00     0.000 HD
ATOM     13   O  BGC C   1      15.319  21.632  13.2050  0.00  0.00     0.000 O
ATOM     15  HD  BGC C   1      15.182  22.486  13.1580  0.00  0.00     0.000 HD
ATOM     15   C  BGC C   1      15.743  20.669  14.2090  0.00  0.00     0.000 C
ENDROOT
BRANCH 1 16
ATOM     16  O4  BGC C   2      17.778  18.401  10.7630  0.00  0.00     0.000 O
BRANCH 16 20
ATOM     17  C1  BGC C   2      16.437  14.962   9.0160  0.00  0.00     0.000 C
ATOM     18  C2  BGC C   2      15.372  15.850   9.6390  0.00  0.00     0.000 C
ATOM     19  C3  BGC C   2      15.925  17.239   9.9240  0.00  0.00     0.000 C
ATOM     20  C4  BGC C   2      17.192  17.122  10.7030  0.00  0.00     0.000 C
ATOM     21  C5  BGC C   2      18.160  16.152  10.0330  0.00  0.00     0.000 C
ATOM     22  O5  BGC C   2      17.564  14.904   9.8430  0.00  0.00     0.000 O
ATOM     23   O  BGC C   2      14.253  15.929   8.7440  0.00  0.00     0.000 O
ATOM     25  HD  BGC C   2      13.943  16.738   8.7270  0.00  0.00     0.000 HD
ATOM     25   O  BGC C   2      14.967  17.980  10.6700  0.00  0.00     0.000 O
ATOM     27  HD  BGC C   2      14.657  18.789  10.6530  0.00  0.00     0.000 HD
ATOM     27   C  BGC C   2      19.495  15.952  10.7810  0.00  0.00     0.000 C
ATOM     28   O  BGC C   2      19.273  15.562  12.1460  0.00  0.00     0.000 O
ATOM     30  HD  BGC C   2      18.963  16.370  12.1290  0.00  0.00     0.000 HD
BRANCH 17 30
ATOM     30  O4  BGC C   3      15.924  13.656   8.8630  0.00  0.00     0.000 O
BRANCH 30 34
ATOM     31  C1  BGC C   3      16.030  10.551   6.2770  0.00  0.00     0.000 C
ATOM     32  C2  BGC C   3      17.146  10.570   7.3490  0.00  0.00     0.000 C
ATOM     33  C3  BGC C   3      16.826  11.529   8.4430  0.00  0.00     0.000 C
ATOM     34  C4  BGC C   3      16.483  12.881   7.8130  0.00  0.00     0.000 C
ATOM     35  C5  BGC C   3      15.452  12.790   6.6590  0.00  0.00     0.000 C
ATOM     36  O5  BGC C   3      15.863  11.830   5.7170  0.00  0.00     0.000 O
ATOM     37   O  BGC C   3      17.496   9.350   7.9760  0.00  0.00     0.000 O
ATOM     39  HD  BGC C   3      17.376  10.202   8.0750  0.00  0.00     0.000 HD
ATOM     39   O  BGC C   3      17.956  11.647   9.3560  0.00  0.00     0.000 O
ATOM     41  HD  BGC C   3      17.836  12.499   9.4560  0.00  0.00     0.000 HD
ATOM     41   C  BGC C   3      15.219  14.106   5.8810  0.00  0.00     0.000 C
ATOM     42   O  BGC C   3      16.389  14.615   5.1450  0.00  0.00     0.000 O
ATOM     44  HD  BGC C   3      16.269  15.467   5.2450  0.00  0.00     0.000 HD
BRANCH 31 44
ATOM     44  O4  BGC C   4      16.331   9.654   5.2610  0.00  0.00     0.000 O
BRANCH 44 48
ATOM     45  C1  BGC C   4      14.765   6.937   2.6290  0.00  0.00     0.000 C
ATOM     46  C2  BGC C   4      14.347   8.396   2.2580  0.00  0.00     0.000 C
ATOM     47  C3  BGC C   4      15.272   9.230   3.1530  0.00  0.00     0.000 C
ATOM     48  C4  BGC C   4      15.327   8.911   4.6340  0.00  0.00     0.000 C
ATOM     49  C5  BGC C   4      15.745   7.436   4.7400  0.00  0.00     0.000 C
ATOM     50  O5  BGC C   4      14.881   6.622   4.0260  0.00  0.00     0.000 O
ATOM     51   O  BGC C   4      14.451   8.958   0.8290  0.00  0.00     0.000 O
ATOM     53  HD  BGC C   4      14.293   9.810   0.8110  0.00  0.00     0.000 HD
ATOM     53   O  BGC C   4      14.566  10.556   3.0850  0.00  0.00     0.000 O
ATOM     55  HD  BGC C   4      14.408  11.407   3.0670  0.00  0.00     0.000 HD
ATOM     55   C  BGC C   4      15.677   6.947   6.1630  0.00  0.00     0.000 C
ATOM     56   O  BGC C   4      14.409   7.099   6.8110  0.00  0.00     0.000 O
ATOM     58  HD  BGC C   4      14.251   7.950   6.7930  0.00  0.00     0.000 HD
BRANCH 45 58
ATOM     58  O4  BGC C   5      13.883   5.987   2.1090  0.00  0.00     0.000 O
BRANCH 58 62
ATOM     59  C1  BGC C   5      12.088   3.716   1.1220  0.00  0.00     0.000 C
ATOM     60  C2  BGC C   5      11.275   4.527   2.0020  0.00  0.00     0.000 C
ATOM     61  C3  BGC C   5      11.980   4.925   3.2960  0.00  0.00     0.000 C
ATOM     62  C4  BGC C   5      13.482   4.959   3.0480  0.00  0.00     0.000 C
ATOM     63  C5  BGC C   5      13.837   3.712   2.2720  0.00  0.00     0.000 C
ATOM     64  O5  BGC C   5      12.782   2.977   1.6540  0.00  0.00     0.000 O
ATOM     65   O  BGC C   5      13.930   2.260   4.2000  0.00  0.00     0.000 O
ATOM     67  HD  BGC C   5      14.369   2.770   3.6540  0.00  0.00     0.000 HD
ATOM     67   O  BGC C   5      13.930   2.260   4.2000  0.00  0.00     0.000 O
ATOM     69  HD  BGC C   5      14.369   2.770   3.6540  0.00  0.00     0.000 HD
ENDBRANCH 58 62
ENDBRANCH 45 58
ENDBRANCH 44 48
ENDBRANCH 31 44
ENDBRANCH 30 34
ENDBRANCH 17 30
ENDBRANCH 16 20
ENDBRANCH 1 16
TORSDOF 8
ENDMDL
MODEL 26
REMARK VINA RESULT:      -2.2      9.430     15.555
ROOT
ATOM      1  C1  BGC C   1      12.793   5.556   4.0400  0.00  0.00     0.000 C
ATOM      2  C2  BGC C   1      14.165   4.888   4.1260  0.00  0.00     0.000 C
ATOM      3  C3  BGC C   1      14.868   4.962   2.7750  0.00  0.00     0.000 C
ATOM      4  C4  BGC C   1      13.983   4.474   1.6400  0.00  0.00     0.000 C
ATOM      5  C5  BGC C   1      12.592   5.092   1.7510  0.00  0.00     0.000 C
ATOM      6  O5  BGC C   1      12.041   5.008   3.0260  0.00  0.00     0.000 O
ATOM      7   O  BGC C   1      14.910   5.576   5.1030  0.00  0.00     0.000 O
ATOM      9  HD  BGC C   1      15.072   4.781   4.7980  0.00  0.00     0.000 HD
ATOM      9   O  BGC C   1      16.087   4.213   2.8660  0.00  0.00     0.000 O
ATOM     11  HD  BGC C   1      16.249   3.418   2.5610  0.00  0.00     0.000 HD
ATOM     11   O  BGC C   1      14.620   4.862   0.4270  0.00  0.00     0.000 O
ATOM     13  HD  BGC C   1      14.782   4.068   0.1220  0.00  0.00     0.000 HD
ATOM     13   O  BGC C   1      11.421   2.986   1.1750  0.00  0.00     0.000 O
ATOM     15  HD  BGC C   1      11.583   2.192   0.8700  0.00  0.00     0.000 HD
ATOM     15   C  BGC C   1      11.663   4.360   0.7650  0.00  0.00     0.000 C
ENDROOT
BRANCH 1 16
ATOM     16  O4  BGC C   2      12.101   5.318   5.2420  0.00  0.00     0.000 O
BRANCH 16 20
ATOM     17  C1  BGC C   2       9.371   7.238   7.5950  0.00  0.00     0.000 C
ATOM     18  C2  BGC C   2       8.806   6.482   6.4030  0.00  0.00     0.000 C
ATOM     19  C3  BGC C   2       9.843   5.527   5.8290  0.00  0.00     0.000 C
ATOM     20  C4  BGC C   2      11.112   6.266   5.5700  0.00  0.00     0.000 C
ATOM     21  C5  BGC C   2      11.551   7.052   6.8020  0.00  0.00     0.000 C
ATOM     22  O5  BGC C   2      10.540   7.914   7.2300  0.00  0.00     0.000 O
ATOM     23   O  BGC C   2       7.638   5.760   6.8240  0.00  0.00     0.000 O
ATOM     25  HD  BGC C   2       7.625   4.976   6.4570  0.00  0.00     0.000 HD
ATOM     25   O  BGC C   2       9.349   4.976   4.6140  0.00  0.00     0.000 O
ATOM     27  HD  BGC C   2       9.336   4.192   4.2470  0.00  0.00     0.000 HD
ATOM     27   C  BGC C   2      12.849   7.866   6.6210  0.00  0.00     0.000 C
ATOM     28   O  BGC C   2      12.760   8.741   5.4850  0.00  0.00     0.000 O
ATOM     30  HD  BGC C   2      12.748   7.957   5.1190  0.00  0.00     0.000 HD
BRANCH 17 30
ATOM     30  O4  BGC C   3       8.423   8.187   8.0360  0.00  0.00     0.000 O
BRANCH 30 34
ATOM     31  C1  BGC C   3       7.044   9.906  11.4250  0.00  0.00     0.000 C
ATOM     32  C2  BGC C   3       8.327  10.533  10.8280  0.00  0.00     0.000 C
ATOM     33  C3  BGC C   3       8.552  10.072   9.4300  0.00  0.00     0.000 C
ATOM     34  C4  BGC C   3       8.484   8.543   9.4090  0.00  0.00     0.000 C
ATOM     35  C5  BGC C   3       7.240   7.963  10.1300  0.00  0.00     0.000 C
ATOM     36  O5  BGC C   3       7.135   8.503  11.4240  0.00  0.00     0.000 O
ATOM     37   O  BGC C   3       8.439  11.944  10.8090  0.00  0.00     0.000 O
ATOM     39  HD  BGC C   3       8.597  11.203  10.3890  0.00  0.00     0.000 HD
ATOM     39   O  BGC C   3       9.841  10.548   8.9440  0.00  0.00     0.000 O
ATOM     41  HD  BGC C   3       9.999   9.808   8.5240  0.00  0.00     0.000 HD
ATOM     41   C  BGC C   3       7.232   6.425  10.2870  0.00  0.00     0.000 C
ATOM     42   O  BGC C   3       8.304   5.875  11.1340  0.00  0.00     0.000 O
ATOM     44  HD  BGC C   3       8.462   5.134  10.7130  0.00  0.00     0.000 HD
BRANCH 31 44
ATOM     44  O4  BGC C   4       6.837  10.339  12.7280  0.00  0.00     0.000 O
BRANCH 44 48
ATOM     45  C1  BGC C   4       4.014  11.511  15.4510  0.00  0.00     0.000 C
ATOM     46  C2  BGC C   4       3.902   9.985  15.1360  0.00  0.00     0.000 C
ATOM     47  C3  BGC C   4       5.206   9.722  14.3720  0.00  0.00     0.000 C
ATOM     48  C4  BGC C   4       5.552  10.619  13.1990  0.00  0.00     0.000 C
ATOM     49  C5  BGC C   4       5.592  12.052  13.7540  0.00  0.00     0.000 C
ATOM     50  O5  BGC C   4       4.397  12.379  14.3730  0.00  0.00     0.000 O
ATOM     51   O  BGC C   4       3.781   8.911  16.2320  0.00  0.00     0.000 O
ATOM     53  HD  BGC C   4       3.846   8.112  15.9020  0.00  0.00     0.000 HD
ATOM     53   O  BGC C   4       4.869   8.399  13.7390  0.00  0.00     0.000 O
ATOM     55  HD  BGC C   4       4.934   7.601  13.4090  0.00  0.00     0.000 HD
ATOM     55   C  BGC C   4       5.765  13.063  12.6500  0.00  0.00     0.000 C
ATOM     56   O  BGC C   4       4.785  13.015  11.6060  0.00  0.00     0.000 O
ATOM     58  HD  BGC C   4       4.850  12.217  11.2760  0.00  0.00     0.000 HD
BRANCH 45 58
ATOM     58  O4  BGC C   5       2.817  12.038  15.9410  0.00  0.00     0.000 O
BRANCH 58 62
ATOM     59  C1  BGC C   5       0.456  13.553  17.1590  0.00  0.00     0.000 C
ATOM     60  C2  BGC C   5       0.022  13.098  15.8560  0.00  0.00     0.000 C
ATOM     61  C3  BGC C   5       1.055  13.318  14.7540  0.00  0.00     0.000 C
ATOM     62  C4  BGC C   5       2.444  13.318  15.3740  0.00  0.00     0.000 C
ATOM     63  C5  BGC C   5       2.381  14.172  16.6190  0.00  0.00     0.000 C
ATOM     64  O5  BGC C   5       1.098  14.501  17.1480  0.00  0.00     0.000 O
ATOM     65   O  BGC C   5       2.618  16.280  15.4630  0.00  0.00     0.000 O
ATOM     67  HD  BGC C   5       3.015  15.634  15.8820  0.00  0.00     0.000 HD
ATOM     67   O  BGC C   5       2.618  16.280  15.4630  0.00  0.00     0.000 O
ATOM     69  HD  BGC C   5       3.015  15.634  15.8820  0.00  0.00     0.000 HD
ENDBRANCH 58 62
ENDBRANCH 45 58
ENDBRANCH 44 48
ENDBRANCH 31 44
ENDBRANCH 30 34
ENDBRANCH 17 30
ENDBRANCH 16 20
ENDBRANCH 1 16
TORSDOF 8
ENDMDL
MODEL 27
REMARK VINA RESULT:      -2.1      4.763      8.992
ROOT
ATOM      1  C1  BGC C   1      13.333   2.986   4.3120  0.00  0.00     0.000 C
ATOM      2  C2  BGC C   1      12.585   2.165   3.2610  0.00  0.00     0.000 C
ATOM      3  C3  BGC C   1      11.114   2.045   3.6430  0.00  0.00     0.000 C
ATOM      4  C4  BGC C   1      10.929   1.578   5.0770  0.00  0.00     0.000 C
ATOM      5  C5  BGC C   1      11.843   2.366   6.0120  0.00  0.00     0.000 C
ATOM      6  O5  BGC C   1      13.159   2.453   5.5680  0.00  0.00     0.000 O
ATOM      7   O  BGC C   1      12.717   2.834   2.0300  0.00  0.00     0.000 O
ATOM      9  HD  BGC C   1      12.497   2.004   2.1430  0.00  0.00     0.000 HD
ATOM      9   O  BGC C   1      10.482   1.163   2.7060  0.00  0.00     0.000 O
ATOM     11  HD  BGC C   1      10.262   0.333   2.8190  0.00  0.00     0.000 HD
ATOM     11   O  BGC C   1       9.559   1.786   5.4040  0.00  0.00     0.000 O
ATOM     13  HD  BGC C   1       9.340   0.956   5.5170  0.00  0.00     0.000 HD
ATOM     13   O  BGC C   1      12.488   0.378   7.3420  0.00  0.00     0.000 O
ATOM     15  HD  BGC C   1      12.268  -0.452   7.4550  0.00  0.00     0.000 HD
ATOM     15   C  BGC C   1      11.832   1.675   7.3880  0.00  0.00     0.000 C
ENDROOT
BRANCH 1 16
ATOM     16  O4  BGC C   2      14.711   2.931   4.0280  0.00  0.00     0.000 O
BRANCH 16 20
ATOM     17  C1  BGC C   2      17.948   5.412   4.2370  0.00  0.00     0.000 C
ATOM     18  C2  BGC C   2      17.556   4.720   5.5330  0.00  0.00     0.000 C
ATOM     19  C3  BGC C   2      16.597   3.570   5.2620  0.00  0.00     0.000 C
ATOM     20  C4  BGC C   2      15.457   4.055   4.4300  0.00  0.00     0.000 C
ATOM     21  C5  BGC C   2      15.957   4.801   3.1960  0.00  0.00     0.000 C
ATOM     22  O5  BGC C   2      16.805   5.849   3.5570  0.00  0.00     0.000 O
ATOM     23   O  BGC C   2      18.745   4.240   6.1790  0.00  0.00     0.000 O
ATOM     25  HD  BGC C   2      18.603   3.456   6.5180  0.00  0.00     0.000 HD
ATOM     25   O  BGC C   2      16.110   3.066   6.4990  0.00  0.00     0.000 O
ATOM     27  HD  BGC C   2      15.968   2.281   6.8380  0.00  0.00     0.000 HD
ATOM     27   C  BGC C   2      14.845   5.358   2.2840  0.00  0.00     0.000 C
ATOM     28   O  BGC C   2      13.932   6.186   3.0220  0.00  0.00     0.000 O
ATOM     30  HD  BGC C   2      13.790   5.401   3.3610  0.00  0.00     0.000 HD
BRANCH 17 30
ATOM     30  O4  BGC C   3      18.751   6.534   4.5330  0.00  0.00     0.000 O
BRANCH 30 34
ATOM     31  C1  BGC C   3      21.552   8.947   2.8980  0.00  0.00     0.000 C
ATOM     32  C2  BGC C   3      20.116   9.117   2.3470  0.00  0.00     0.000 C
ATOM     33  C3  BGC C   3      19.118   8.455   3.2320  0.00  0.00     0.000 C
ATOM     34  C4  BGC C   3      19.572   7.014   3.4790  0.00  0.00     0.000 C
ATOM     35  C5  BGC C   3      21.056   6.891   3.9090  0.00  0.00     0.000 C
ATOM     36  O5  BGC C   3      21.881   7.584   3.0050  0.00  0.00     0.000 O
ATOM     37   O  BGC C   3      19.637  10.428   2.1130  0.00  0.00     0.000 O
ATOM     39  HD  BGC C   3      19.445   9.630   2.3880  0.00  0.00     0.000 HD
ATOM     39   O  BGC C   3      17.796   8.492   2.6170  0.00  0.00     0.000 O
ATOM     41  HD  BGC C   3      17.604   7.694   2.8930  0.00  0.00     0.000 HD
ATOM     41   C  BGC C   3      21.599   5.446   3.9890  0.00  0.00     0.000 C
ATOM     42   O  BGC C   3      21.637   4.718   2.7090  0.00  0.00     0.000 O
ATOM     44  HD  BGC C   3      21.445   3.920   2.9850  0.00  0.00     0.000 HD
BRANCH 31 44
ATOM     44  O4  BGC C   4      22.479   9.567   2.0710  0.00  0.00     0.000 O
BRANCH 44 48
ATOM     45  C1  BGC C   4      26.400  10.700   1.7540  0.00  0.00     0.000 C
ATOM     46  C2  BGC C   4      26.197   9.220   1.2980  0.00  0.00     0.000 C
ATOM     47  C3  BGC C   4      24.669   9.123   1.2030  0.00  0.00     0.000 C
ATOM     48  C4  BGC C   4      23.839   9.572   2.3900  0.00  0.00     0.000 C
ATOM     49  C5  BGC C   4      24.222  11.038   2.6490  0.00  0.00     0.000 C
ATOM     50  O5  BGC C   4      25.587  11.170   2.8400  0.00  0.00     0.000 O
ATOM     51   O  BGC C   4      26.780   8.660  -0.0130  0.00  0.00     0.000 O
ATOM     53  HD  BGC C   4      26.482   7.864  -0.1780  0.00  0.00     0.000 HD
ATOM     53   O  BGC C   4      24.508   7.628   1.1830  0.00  0.00     0.000 O
ATOM     55  HD  BGC C   4      24.210   6.832   1.0170  0.00  0.00     0.000 HD
ATOM     55   C  BGC C   4      23.585  11.556   3.9120  0.00  0.00     0.000 C
ATOM     56   O  BGC C   4      23.864  10.806   5.1000  0.00  0.00     0.000 O
ATOM     58  HD  BGC C   4      23.566  10.010   4.9350  0.00  0.00     0.000 HD
BRANCH 45 58
ATOM     58  O4  BGC C   5      27.718  10.955   2.1420  0.00  0.00     0.000 O
BRANCH 58 62
ATOM     59  C1  BGC C   5      30.363  11.419   3.6060  0.00  0.00     0.000 C
ATOM     60  C2  BGC C   5      30.692  10.740   2.3720  0.00  0.00     0.000 C
ATOM     61  C3  BGC C   5      29.771   9.565   2.0540  0.00  0.00     0.000 C
ATOM     62  C4  BGC C   5      28.415   9.813   2.6990  0.00  0.00     0.000 C
ATOM     63  C5  BGC C   5      28.670  10.296   4.1080  0.00  0.00     0.000 C
ATOM     64  O5  BGC C   5      29.984  10.737   4.4440  0.00  0.00     0.000 O
ATOM     65   O  BGC C   5      28.999   8.096   5.0490  0.00  0.00     0.000 O
ATOM     67  HD  BGC C   5      28.443   8.740   4.8880  0.00  0.00     0.000 HD
ATOM     67   O  BGC C   5      28.999   8.096   5.0490  0.00  0.00     0.000 O
ATOM     69  HD  BGC C   5      28.443   8.740   4.8880  0.00  0.00     0.000 HD
ENDBRANCH 58 62
ENDBRANCH 45 58
ENDBRANCH 44 48
ENDBRANCH 31 44
ENDBRANCH 30 34
ENDBRANCH 17 30
ENDBRANCH 16 20
ENDBRANCH 1 16
TORSDOF 8
ENDMDL
MODEL 28
REMARK VINA RESULT:      -2.1      9.010     15.356
ROOT
ATOM      1  C1  BGC C   1      13.004   5.631   4.0640  0.00  0.00     0.000 C
ATOM      2  C2  BGC C   1      14.385   4.976   4.0700  0.00  0.00     0.000 C
ATOM      3  C3  BGC C   1      15.019   5.082   2.6880  0.00  0.00     0.000 C
ATOM      4  C4  BGC C   1      14.084   4.605   1.5880  0.00  0.00     0.000 C
ATOM      5  C5  BGC C   1      12.694   5.206   1.7800  0.00  0.00     0.000 C
ATOM      6  O5  BGC C   1      12.208   5.093   3.0790  0.00  0.00     0.000 O
ATOM      7   O  BGC C   1      15.170   5.654   5.0210  0.00  0.00     0.000 O
ATOM      9  HD  BGC C   1      15.325   4.867   4.6940  0.00  0.00     0.000 HD
ATOM      9   O  BGC C   1      16.248   4.344   2.7050  0.00  0.00     0.000 O
ATOM     11  HD  BGC C   1      16.403   3.557   2.3770  0.00  0.00     0.000 HD
ATOM     11   O  BGC C   1      14.656   5.021   0.3530  0.00  0.00     0.000 O
ATOM     13  HD  BGC C   1      14.811   4.235   0.0260  0.00  0.00     0.000 HD
ATOM     13   O  BGC C   1      11.517   3.098   1.2230  0.00  0.00     0.000 O
ATOM     15  HD  BGC C   1      11.671   2.311   0.8960  0.00  0.00     0.000 HD
ATOM     15   C  BGC C   1      11.725   4.482   0.8270  0.00  0.00     0.000 C
ENDROOT
BRANCH 1 16
ATOM     16  O4  BGC C   2      12.374   5.364   5.2950  0.00  0.00     0.000 O
BRANCH 16 20
ATOM     17  C1  BGC C   2       9.743   7.202   7.8190  0.00  0.00     0.000 C
ATOM     18  C2  BGC C   2       9.131   6.498   6.6190  0.00  0.00     0.000 C
ATOM     19  C3  BGC C   2      10.140   5.561   5.9700  0.00  0.00     0.000 C
ATOM     20  C4  BGC C   2      11.405   6.303   5.6950  0.00  0.00     0.000 C
ATOM     21  C5  BGC C   2      11.893   7.035   6.9420  0.00  0.00     0.000 C
ATOM     22  O5  BGC C   2      10.904   7.885   7.4400  0.00  0.00     0.000 O
ATOM     23   O  BGC C   2       7.973   5.767   7.0510  0.00  0.00     0.000 O
ATOM     25  HD  BGC C   2       7.942   4.998   6.6540  0.00  0.00     0.000 HD
ATOM     25   O  BGC C   2       9.599   5.064   4.7510  0.00  0.00     0.000 O
ATOM     27  HD  BGC C   2       9.568   4.295   4.3540  0.00  0.00     0.000 HD
ATOM     27   C  BGC C   2      13.189   7.848   6.7480  0.00  0.00     0.000 C
ATOM     28   O  BGC C   2      13.067   8.770   5.6520  0.00  0.00     0.000 O
ATOM     30  HD  BGC C   2      13.035   8.001   5.2550  0.00  0.00     0.000 HD
BRANCH 17 30
ATOM     30  O4  BGC C   3       8.818   8.137   8.3320  0.00  0.00     0.000 O
BRANCH 30 34
ATOM     31  C1  BGC C   3       7.536   9.674  11.8440  0.00  0.00     0.000 C
ATOM     32  C2  BGC C   3       8.797  10.339  11.2410  0.00  0.00     0.000 C
ATOM     33  C3  BGC C   3       8.981   9.951   9.8150  0.00  0.00     0.000 C
ATOM     34  C4  BGC C   3       8.920   8.424   9.7190  0.00  0.00     0.000 C
ATOM     35  C5  BGC C   3       7.702   7.800  10.4470  0.00  0.00     0.000 C
ATOM     36  O5  BGC C   3       7.634   8.273  11.7690  0.00  0.00     0.000 O
ATOM     37   O  BGC C   3       8.901  11.749  11.2900  0.00  0.00     0.000 O
ATOM     39  HD  BGC C   3       9.049  11.032  10.8280  0.00  0.00     0.000 HD
ATOM     39   O  BGC C   3      10.252  10.459   9.3150  0.00  0.00     0.000 O
ATOM     41  HD  BGC C   3      10.401   9.742   8.8530  0.00  0.00     0.000 HD
ATOM     41   C  BGC C   3       7.706   6.256  10.5260  0.00  0.00     0.000 C
ATOM     42   O  BGC C   3       8.807   5.671  11.3110  0.00  0.00     0.000 O
ATOM     44  HD  BGC C   3       8.955   4.954  10.8490  0.00  0.00     0.000 HD
BRANCH 31 44
ATOM     44  O4  BGC C   4       7.367  10.040  13.1730  0.00  0.00     0.000 O
BRANCH 44 48
ATOM     45  C1  BGC C   4       4.619  11.018  16.0450  0.00  0.00     0.000 C
ATOM     46  C2  BGC C   4       4.561   9.496  15.6970  0.00  0.00     0.000 C
ATOM     47  C3  BGC C   4       5.840   9.310  14.8700  0.00  0.00     0.000 C
ATOM     48  C4  BGC C   4       6.093  10.249  13.7070  0.00  0.00     0.000 C
ATOM     49  C5  BGC C   4       6.093  11.669  14.2940  0.00  0.00     0.000 C
ATOM     50  O5  BGC C   4       4.913  11.926  14.9730  0.00  0.00     0.000 O
ATOM     51   O  BGC C   4       4.537   8.392  16.7700  0.00  0.00     0.000 O
ATOM     53  HD  BGC C   4       4.623   7.606  16.4180  0.00  0.00     0.000 HD
ATOM     53   O  BGC C   4       5.535   7.989  14.2210  0.00  0.00     0.000 O
ATOM     55  HD  BGC C   4       5.621   7.202  13.8680  0.00  0.00     0.000 HD
ATOM     55   C  BGC C   4       6.171  12.712  13.2090  0.00  0.00     0.000 C
ATOM     56   O  BGC C   4       5.148  12.643  12.2080  0.00  0.00     0.000 O
ATOM     58  HD  BGC C   4       5.235  11.856  11.8560  0.00  0.00     0.000 HD
BRANCH 45 58
ATOM     58  O4  BGC C   5       3.422  11.478  16.6000  0.00  0.00     0.000 O
BRANCH 58 62
ATOM     59  C1  BGC C   5       0.706  12.687  17.3150  0.00  0.00     0.000 C
ATOM     60  C2  BGC C   5       0.760  11.393  17.9590  0.00  0.00     0.000 C
ATOM     61  C3  BGC C   5       1.297  10.283  17.0610  0.00  0.00     0.000 C
ATOM     62  C4  BGC C   5       2.227  10.895  16.0230  0.00  0.00     0.000 C
ATOM     63  C5  BGC C   5       1.544  12.129  15.4810  0.00  0.00     0.000 C
ATOM     64  O5  BGC C   5       0.435  12.660  16.2020  0.00  0.00     0.000 O
ATOM     65   O  BGC C   5       0.150  10.944  13.9040  0.00  0.00     0.000 O
ATOM     67  HD  BGC C   5       0.892  11.369  14.0390  0.00  0.00     0.000 HD
ATOM     67   O  BGC C   5       0.150  10.944  13.9040  0.00  0.00     0.000 O
ATOM     69  HD  BGC C   5       0.892  11.369  14.0390  0.00  0.00     0.000 HD
ENDBRANCH 58 62
ENDBRANCH 45 58
ENDBRANCH 44 48
ENDBRANCH 31 44
ENDBRANCH 30 34
ENDBRANCH 17 30
ENDBRANCH 16 20
ENDBRANCH 1 16
TORSDOF 8
ENDMDL
MODEL 29
REMARK VINA RESULT:      -2.1      8.113     14.937
ROOT
ATOM      1  C1  BGC C   1      20.833  16.147  11.8420  0.00  0.00     0.000 C
ATOM      2  C2  BGC C   1      22.157  16.869  11.5960  0.00  0.00     0.000 C
ATOM      3  C3  BGC C   1      22.493  17.762  12.7850  0.00  0.00     0.000 C
ATOM      4  C4  BGC C   1      21.331  18.661  13.1760  0.00  0.00     0.000 C
ATOM      5  C5  BGC C   1      20.037  17.854  13.2370  0.00  0.00     0.000 C
ATOM      6  O5  BGC C   1      19.827  17.043  12.1250  0.00  0.00     0.000 O
ATOM      7   O  BGC C   1      23.150  15.886  11.4270  0.00  0.00     0.000 O
ATOM      9  HD  BGC C   1      23.201  16.715  11.1830  0.00  0.00     0.000 HD
ATOM      9   O  BGC C   1      23.668  18.516  12.4580  0.00  0.00     0.000 O
ATOM     11  HD  BGC C   1      23.718  19.345  12.2130  0.00  0.00     0.000 HD
ATOM     11   O  BGC C   1      21.649  19.215  14.4470  0.00  0.00     0.000 O
ATOM     13  HD  BGC C   1      21.700  20.044  14.2030  0.00  0.00     0.000 HD
ATOM     13   O  BGC C   1      18.685  19.611  12.1300  0.00  0.00     0.000 O
ATOM     15  HD  BGC C   1      18.736  20.440  11.8850  0.00  0.00     0.000 HD
ATOM     15   C  BGC C   1      18.861  18.842  13.3520  0.00  0.00     0.000 C
ENDROOT
BRANCH 1 16
ATOM     16  O4  BGC C   2      20.463  15.472  10.6620  0.00  0.00     0.000 O
BRANCH 16 20
ATOM     17  C1  BGC C   2      18.527  12.025   9.6410  0.00  0.00     0.000 C
ATOM     18  C2  BGC C   2      17.641  13.232   9.9030  0.00  0.00     0.000 C
ATOM     19  C3  BGC C   2      18.462  14.514   9.9110  0.00  0.00     0.000 C
ATOM     20  C4  BGC C   2      19.619  14.360  10.8400  0.00  0.00     0.000 C
ATOM     21  C5  BGC C   2      20.396  13.081  10.5410  0.00  0.00     0.000 C
ATOM     22  O5  BGC C   2      19.557  11.966  10.5860  0.00  0.00     0.000 O
ATOM     23   O  BGC C   2      16.627  13.293   8.8880  0.00  0.00     0.000 O
ATOM     25  HD  BGC C   2      16.501  14.113   8.6420  0.00  0.00     0.000 HD
ATOM     25   O  BGC C   2      17.641  15.593  10.3390  0.00  0.00     0.000 O
ATOM     27  HD  BGC C   2      17.515  16.414  10.0930  0.00  0.00     0.000 HD
ATOM     27   C  BGC C   2      21.602  12.826  11.4680  0.00  0.00     0.000 C
ATOM     28   O  BGC C   2      21.212  12.853  12.8500  0.00  0.00     0.000 O
ATOM     30  HD  BGC C   2      21.087  13.674  12.6040  0.00  0.00     0.000 HD
BRANCH 17 30
ATOM     30  O4  BGC C   3      17.753  10.849   9.7440  0.00  0.00     0.000 O
BRANCH 30 34
ATOM     31  C1  BGC C   3      17.094   7.592   7.4430  0.00  0.00     0.000 C
ATOM     32  C2  BGC C   3      17.864   7.337   8.7610  0.00  0.00     0.000 C
ATOM     33  C3  BGC C   3      17.753   8.501   9.6830  0.00  0.00     0.000 C
ATOM     34  C4  BGC C   3      18.145   9.766   8.9140  0.00  0.00     0.000 C
ATOM     35  C5  BGC C   3      17.436   9.908   7.5430  0.00  0.00     0.000 C
ATOM     36  O5  BGC C   3      17.597   8.731   6.7900  0.00  0.00     0.000 O
ATOM     37   O  BGC C   3      17.535   6.190   9.5210  0.00  0.00     0.000 O
ATOM     39  HD  BGC C   3      17.763   7.025   9.5400  0.00  0.00     0.000 HD
ATOM     39   O  BGC C   3      18.610   8.306  10.8460  0.00  0.00     0.000 O
ATOM     41  HD  BGC C   3      18.838   9.142  10.8650  0.00  0.00     0.000 HD
ATOM     41   C  BGC C   3      17.941  11.073   6.6610  0.00  0.00     0.000 C
ATOM     42   O  BGC C   3      19.342  10.964   6.2200  0.00  0.00     0.000 O
ATOM     44  HD  BGC C   3      19.570  11.800   6.2400  0.00  0.00     0.000 HD
BRANCH 31 44
ATOM     44  O4  BGC C   4      17.199   6.503   6.5870  0.00  0.00     0.000 O
BRANCH 44 48
ATOM     45  C1  BGC C   4      15.184   4.517   3.6280  0.00  0.00     0.000 C
ATOM     46  C2  BGC C   4      14.934   6.058   3.5510  0.00  0.00     0.000 C
ATOM     47  C3  BGC C   4      15.998   6.600   4.5150  0.00  0.00     0.000 C
ATOM     48  C4  BGC C   4      16.082   6.009   5.9080  0.00  0.00     0.000 C
ATOM     49  C5  BGC C   4      16.316   4.502   5.7210  0.00  0.00     0.000 C
ATOM     50  O5  BGC C   4      15.325   3.939   4.9340  0.00  0.00     0.000 O
ATOM     51   O  BGC C   4      15.041   6.859   2.2420  0.00  0.00     0.000 O
ATOM     53  HD  BGC C   4      14.990   7.712   2.3860  0.00  0.00     0.000 HD
ATOM     53   O  BGC C   4      15.461   7.988   4.7330  0.00  0.00     0.000 O
ATOM     55  HD  BGC C   4      15.410   8.841   4.8780  0.00  0.00     0.000 HD
ATOM     55   C  BGC C   4      16.255   3.769   7.0360  0.00  0.00     0.000 C
ATOM     56   O  BGC C   4      15.047   3.943   7.7860  0.00  0.00     0.000 O
ATOM     58  HD  BGC C   4      14.996   4.795   7.9310  0.00  0.00     0.000 HD
BRANCH 45 58
ATOM     58  O4  BGC C   5      14.167   3.787   3.0090  0.00  0.00     0.000 O
BRANCH 58 62
ATOM     59  C1  BGC C   5      11.598   2.580   1.8710  0.00  0.00     0.000 C
ATOM     60  C2  BGC C   5      11.204   3.766   2.5990  0.00  0.00     0.000 C
ATOM     61  C3  BGC C   5      11.879   3.900   3.9620  0.00  0.00     0.000 C
ATOM     62  C4  BGC C   5      13.219   3.180   3.9220  0.00  0.00     0.000 C
ATOM     63  C5  BGC C   5      12.992   1.847   3.2480  0.00  0.00     0.000 C
ATOM     64  O5  BGC C   5      11.781   1.654   2.5200  0.00  0.00     0.000 O
ATOM     65   O  BGC C   5      12.164   0.730   5.2240  0.00  0.00     0.000 O
ATOM     67  HD  BGC C   5      12.849   0.908   4.7250  0.00  0.00     0.000 HD
ATOM     67   O  BGC C   5      12.164   0.730   5.2240  0.00  0.00     0.000 O
ATOM     69  HD  BGC C   5      12.849   0.908   4.7250  0.00  0.00     0.000 HD
ENDBRANCH 58 62
ENDBRANCH 45 58
ENDBRANCH 44 48
ENDBRANCH 31 44
ENDBRANCH 30 34
ENDBRANCH 17 30
ENDBRANCH 16 20
ENDBRANCH 1 16
TORSDOF 8
ENDMDL
MODEL 30
REMARK VINA RESULT:      -1.9      7.055     14.026
ROOT
ATOM      1  C1  BGC C   1      19.077   6.325   4.0200  0.00  0.00     0.000 C
ATOM      2  C2  BGC C   1      18.271   7.134   3.0050  0.00  0.00     0.000 C
ATOM      3  C3  BGC C   1      16.972   7.619   3.6370  0.00  0.00     0.000 C
ATOM      4  C4  BGC C   1      16.209   6.495   4.3180  0.00  0.00     0.000 C
ATOM      5  C5  BGC C   1      17.152   5.665   5.1830  0.00  0.00     0.000 C
ATOM      6  O5  BGC C   1      18.327   5.293   4.5360  0.00  0.00     0.000 O
ATOM      7   O  BGC C   1      19.063   8.229   2.6120  0.00  0.00     0.000 O
ATOM      9  HD  BGC C   1      18.378   7.912   2.1870  0.00  0.00     0.000 HD
ATOM      9   O  BGC C   1      16.191   8.257   2.6170  0.00  0.00     0.000 O
ATOM     11  HD  BGC C   1      15.507   7.939   2.1920  0.00  0.00     0.000 HD
ATOM     11   O  BGC C   1      15.194   7.106   5.1080  0.00  0.00     0.000 O
ATOM     13  HD  BGC C   1      14.510   6.788   4.6830  0.00  0.00     0.000 HD
ATOM     13   O  BGC C   1      16.162   3.501   4.4920  0.00  0.00     0.000 O
ATOM     15  HD  BGC C   1      15.478   3.183   4.0680  0.00  0.00     0.000 HD
ATOM     15   C  BGC C   1      16.407   4.390   5.6180  0.00  0.00     0.000 C
ENDROOT
BRANCH 1 16
ATOM     16  O4  BGC C   2      20.178   5.745   3.3610  0.00  0.00     0.000 O
BRANCH 16 20
ATOM     17  C1  BGC C   2      24.077   4.830   4.1600  0.00  0.00     0.000 C
ATOM     18  C2  BGC C   2      23.038   3.915   4.7880  0.00  0.00     0.000 C
ATOM     19  C3  BGC C   2      21.676   4.121   4.1400  0.00  0.00     0.000 C
ATOM     20  C4  BGC C   2      21.333   5.573   4.1480  0.00  0.00     0.000 C
ATOM     21  C5  BGC C   2      22.471   6.408   3.5690  0.00  0.00     0.000 C
ATOM     22  O5  BGC C   2      23.665   6.164   4.2500  0.00  0.00     0.000 O
ATOM     23   O  BGC C   2      23.466   2.554   4.6340  0.00  0.00     0.000 O
ATOM     25  HD  BGC C   2      22.790   2.050   4.4340  0.00  0.00     0.000 HD
ATOM     25   O  BGC C   2      20.696   3.391   4.8690  0.00  0.00     0.000 O
ATOM     27  HD  BGC C   2      20.020   2.888   4.6690  0.00  0.00     0.000 HD
ATOM     27   C  BGC C   2      22.214   7.929   3.5550  0.00  0.00     0.000 C
ATOM     28   O  BGC C   2      21.867   8.411   4.8630  0.00  0.00     0.000 O
ATOM     30  HD  BGC C   2      21.191   7.908   4.6630  0.00  0.00     0.000 HD
BRANCH 17 30
ATOM     30  O4  BGC C   3      25.299   4.690   4.8520  0.00  0.00     0.000 O
BRANCH 30 34
ATOM     31  C1  BGC C   3      29.285   4.584   4.1850  0.00  0.00     0.000 C
ATOM     32  C2  BGC C   3      28.666   5.995   4.3310  0.00  0.00     0.000 C
ATOM     33  C3  BGC C   3      27.296   5.925   4.9100  0.00  0.00     0.000 C
ATOM     34  C4  BGC C   3      26.479   4.919   4.0960  0.00  0.00     0.000 C
ATOM     35  C5  BGC C   3      27.198   3.564   3.8730  0.00  0.00     0.000 C
ATOM     36  O5  BGC C   3      28.486   3.780   3.3530  0.00  0.00     0.000 O
ATOM     37   O  BGC C   3      29.371   6.964   5.0850  0.00  0.00     0.000 O
ATOM     39  HD  BGC C   3      28.596   6.637   4.8770  0.00  0.00     0.000 HD
ATOM     39   O  BGC C   3      26.674   7.244   4.8930  0.00  0.00     0.000 O
ATOM     41  HD  BGC C   3      25.899   6.917   4.6860  0.00  0.00     0.000 HD
ATOM     41   C  BGC C   3      26.484   2.593   2.9050  0.00  0.00     0.000 C
ATOM     42   O  BGC C   3      26.375   3.062   1.5140  0.00  0.00     0.000 O
ATOM     44  HD  BGC C   3      25.600   2.735   1.3060  0.00  0.00     0.000 HD
BRANCH 31 44
ATOM     44  O4  BGC C   4      30.563   4.654   3.6470  0.00  0.00     0.000 O
BRANCH 44 48
ATOM     45  C1  BGC C   4      34.342   3.089   3.7970  0.00  0.00     0.000 C
ATOM     46  C2  BGC C   4      33.327   2.068   3.1910  0.00  0.00     0.000 C
ATOM     47  C3  BGC C   4      32.096   2.950   2.9470  0.00  0.00     0.000 C
ATOM     48  C4  BGC C   4      31.579   3.803   4.0880  0.00  0.00     0.000 C
ATOM     49  C5  BGC C   4      32.749   4.704   4.5150  0.00  0.00     0.000 C
ATOM     50  O5  BGC C   4      33.864   3.949   4.8420  0.00  0.00     0.000 O
ATOM     51   O  BGC C   4      33.601   1.284   1.8940  0.00  0.00     0.000 O
ATOM     53  HD  BGC C   4      32.899   0.851   1.6310  0.00  0.00     0.000 HD
ATOM     53   O  BGC C   4      31.048   1.885   2.7760  0.00  0.00     0.000 O
ATOM     55  HD  BGC C   4      30.346   1.452   2.5120  0.00  0.00     0.000 HD
ATOM     55   C  BGC C   4      32.414   5.489   5.7560  0.00  0.00     0.000 C
ATOM     56   O  BGC C   4      32.012   4.713   6.8910  0.00  0.00     0.000 O
ATOM     58  HD  BGC C   4      31.309   4.281   6.6270  0.00  0.00     0.000 HD
BRANCH 45 58
ATOM     58  O4  BGC C   5      35.471   2.459   4.3270  0.00  0.00     0.000 O
BRANCH 58 62
ATOM     59  C1  BGC C   5      37.579   0.682   5.6500  0.00  0.00     0.000 C
ATOM     60  C2  BGC C   5      36.312   0.004   5.8140  0.00  0.00     0.000 C
ATOM     61  C3  BGC C   5      35.176   0.924   6.2540  0.00  0.00     0.000 C
ATOM     62  C4  BGC C   5      35.471   2.337   5.7710  0.00  0.00     0.000 C
ATOM     63  C5  BGC C   5      36.923   2.622   6.0780  0.00  0.00     0.000 C
ATOM     64  O5  BGC C   5      37.775   1.524   6.4000  0.00  0.00     0.000 O
ATOM     65   O  BGC C   5      36.555   3.217   8.3900  0.00  0.00     0.000 O
ATOM     67  HD  BGC C   5      36.635   3.495   7.5740  0.00  0.00     0.000 HD
ATOM     67   O  BGC C   5      36.555   3.217   8.3900  0.00  0.00     0.000 O
ATOM     69  HD  BGC C   5      36.635   3.495   7.5740  0.00  0.00     0.000 HD
ENDBRANCH 58 62
ENDBRANCH 45 58
ENDBRANCH 44 48
ENDBRANCH 31 44
ENDBRANCH 30 34
ENDBRANCH 17 30
ENDBRANCH 16 20
ENDBRANCH 1 16
TORSDOF 8
ENDMDL
MODEL 31
REMARK VINA RESULT:      -1.8     10.898     16.783
ROOT
ATOM      1  C1  BGC C   1      20.782  19.939  12.0580  0.00  0.00     0.000 C
ATOM      2  C2  BGC C   1      22.007  20.843  11.9200  0.00  0.00     0.000 C
ATOM      3  C3  BGC C   1      22.353  21.462  13.2690  0.00  0.00     0.000 C
ATOM      4  C4  BGC C   1      21.148  22.106  13.9330  0.00  0.00     0.000 C
ATOM      5  C5  BGC C   1      19.946  21.168  13.8700  0.00  0.00     0.000 C
ATOM      6  O5  BGC C   1      19.723  20.623  12.6080  0.00  0.00     0.000 O
ATOM      7   O  BGC C   1      23.072  20.045  11.4600  0.00  0.00     0.000 O
ATOM      9  HD  BGC C   1      23.023  20.909  11.4220  0.00  0.00     0.000 HD
ATOM      9   O  BGC C   1      23.420  22.399  13.0680  0.00  0.00     0.000 O
ATOM     11  HD  BGC C   1      23.371  23.262  13.0300  0.00  0.00     0.000 HD
ATOM     11   O  BGC C   1      21.516  22.377  15.2810  0.00  0.00     0.000 O
ATOM     13  HD  BGC C   1      21.467  23.241  15.2430  0.00  0.00     0.000 HD
ATOM     13   O  BGC C   1      18.346  22.972  13.3050  0.00  0.00     0.000 O
ATOM     15  HD  BGC C   1      18.297  23.836  13.2670  0.00  0.00     0.000 HD
ATOM     15   C  BGC C   1      18.695  21.962  14.2900  0.00  0.00     0.000 C
ENDROOT
BRANCH 1 16
ATOM     16  O4  BGC C   2      20.382  19.524  10.7730  0.00  0.00     0.000 O
BRANCH 16 20
ATOM     17  C1  BGC C   2      18.624  16.263   9.0560  0.00  0.00     0.000 C
ATOM     18  C2  BGC C   2      17.679  17.271   9.6890  0.00  0.00     0.000 C
ATOM     19  C3  BGC C   2      18.395  18.586   9.9610  0.00  0.00     0.000 C
ATOM     20  C4  BGC C   2      19.649  18.323  10.7250  0.00  0.00     0.000 C
ATOM     21  C5  BGC C   2      20.488  17.244  10.0470  0.00  0.00     0.000 C
ATOM     22  O5  BGC C   2      19.747  16.074   9.8700  0.00  0.00     0.000 O
ATOM     23   O  BGC C   2      16.565  17.480   8.8070  0.00  0.00     0.000 O
ATOM     25  HD  BGC C   2      16.352  18.319   8.7910  0.00  0.00     0.000 HD
ATOM     25   O  BGC C   2      17.541  19.437  10.7160  0.00  0.00     0.000 O
ATOM     27  HD  BGC C   2      17.328  20.276  10.7000  0.00  0.00     0.000 HD
ATOM     27   C  BGC C   2      21.799  16.890  10.7790  0.00  0.00     0.000 C
ATOM     28   O  BGC C   2      21.551  16.532  12.1490  0.00  0.00     0.000 O
ATOM     30  HD  BGC C   2      21.338  17.371  12.1320  0.00  0.00     0.000 HD
BRANCH 17 30
ATOM     30  O4  BGC C   3      17.959  15.026   8.9150  0.00  0.00     0.000 O
BRANCH 30 34
ATOM     31  C1  BGC C   3      17.705  11.857   6.4180  0.00  0.00     0.000 C
ATOM     32  C2  BGC C   3      18.906  11.848   7.3930  0.00  0.00     0.000 C
ATOM     33  C3  BGC C   3      18.724  12.848   8.4810  0.00  0.00     0.000 C
ATOM     34  C4  BGC C   3      18.391  14.200   7.8440  0.00  0.00     0.000 C
ATOM     35  C5  BGC C   3      17.264  14.130   6.7830  0.00  0.00     0.000 C
ATOM     36  O5  BGC C   3      17.550  13.129   5.8380  0.00  0.00     0.000 O
ATOM     37   O  BGC C   3      19.252  10.629   8.0220  0.00  0.00     0.000 O
ATOM     39  HD  BGC C   3      19.180  11.487   8.1070  0.00  0.00     0.000 HD
ATOM     39   O  BGC C   3      19.932  12.934   9.2940  0.00  0.00     0.000 O
ATOM     41  HD  BGC C   3      19.859  13.792   9.3790  0.00  0.00     0.000 HD
ATOM     41   C  BGC C   3      17.027  15.436   5.9900  0.00  0.00     0.000 C
ATOM     42   O  BGC C   3      18.152  15.870   5.1460  0.00  0.00     0.000 O
ATOM     44  HD  BGC C   3      18.080  16.729   5.2310  0.00  0.00     0.000 HD
BRANCH 31 44
ATOM     44  O4  BGC C   4      17.877  10.922   5.4060  0.00  0.00     0.000 O
BRANCH 44 48
ATOM     45  C1  BGC C   4      15.994   8.092   3.1240  0.00  0.00     0.000 C
ATOM     46  C2  BGC C   4      15.674   9.536   2.6190  0.00  0.00     0.000 C
ATOM     47  C3  BGC C   4      16.699  10.377   3.3910  0.00  0.00     0.000 C
ATOM     48  C4  BGC C   4      16.793  10.205   4.8950  0.00  0.00     0.000 C
ATOM     49  C5  BGC C   4      17.100   8.718   5.1360  0.00  0.00     0.000 C
ATOM     50  O5  BGC C   4      16.145   7.910   4.5400  0.00  0.00     0.000 O
ATOM     51   O  BGC C   4      15.760   9.943   1.1370  0.00  0.00     0.000 O
ATOM     53  HD  BGC C   4      15.668  10.798   1.0380  0.00  0.00     0.000 HD
ATOM     53   O  BGC C   4      16.095  11.743   3.2130  0.00  0.00     0.000 O
ATOM     55  HD  BGC C   4      16.003  12.598   3.1130  0.00  0.00     0.000 HD
ATOM     55   C  BGC C   4      17.056   8.380   6.6040  0.00  0.00     0.000 C
ATOM     56   O  BGC C   4      15.832   8.699   7.2770  0.00  0.00     0.000 O
ATOM     58  HD  BGC C   4      15.740   9.554   7.1770  0.00  0.00     0.000 HD
BRANCH 45 58
ATOM     58  O4  BGC C   5      15.020   7.170   2.7350  0.00  0.00     0.000 O
BRANCH 58 62
ATOM     59  C1  BGC C   5      13.860   4.586   1.5830  0.00  0.00     0.000 C
ATOM     60  C2  BGC C   5      12.876   5.097   2.5110  0.00  0.00     0.000 C
ATOM     61  C3  BGC C   5      13.470   5.574   3.8340  0.00  0.00     0.000 C
ATOM     62  C4  BGC C   5      14.909   6.011   3.5990  0.00  0.00     0.000 C
ATOM     63  C5  BGC C   5      15.564   4.955   2.7400  0.00  0.00     0.000 C
ATOM     64  O5  BGC C   5      14.728   4.016   2.0670  0.00  0.00     0.000 O
ATOM     65   O  BGC C   5      16.052   3.447   4.5640  0.00  0.00     0.000 O
ATOM     67  HD  BGC C   5      16.337   4.089   4.0570  0.00  0.00     0.000 HD
ATOM     67   O  BGC C   5      16.052   3.447   4.5640  0.00  0.00     0.000 O
ATOM     69  HD  BGC C   5      16.337   4.089   4.0570  0.00  0.00     0.000 HD
ENDBRANCH 58 62
ENDBRANCH 45 58
ENDBRANCH 44 48
ENDBRANCH 31 44
ENDBRANCH 30 34
ENDBRANCH 17 30
ENDBRANCH 16 20
ENDBRANCH 1 16
TORSDOF 8
ENDMDL
MODEL 32
REMARK VINA RESULT:      -1.5     12.352     17.990
ROOT
ATOM      1  C1  BGC C   1      21.798   8.973   3.3940  0.00  0.00     0.000 C
ATOM      2  C2  BGC C   1      21.875   8.848   1.8730  0.00  0.00     0.000 C
ATOM      3  C3  BGC C   1      21.607   7.408   1.4540  0.00  0.00     0.000 C
ATOM      4  C4  BGC C   1      22.460   6.415   2.2260  0.00  0.00     0.000 C
ATOM      5  C5  BGC C   1      22.426   6.738   3.7170  0.00  0.00     0.000 C
ATOM      6  O5  BGC C   1      22.649   8.082   4.0060  0.00  0.00     0.000 O
ATOM      7   O  BGC C   1      20.901   9.706   1.3280  0.00  0.00     0.000 O
ATOM      9  HD  BGC C   1      21.585   9.376   0.9130  0.00  0.00     0.000 HD
ATOM      9   O  BGC C   1      21.819   7.310   0.0390  0.00  0.00     0.000 O
ATOM     11  HD  BGC C   1      22.503   6.980  -0.3770  0.00  0.00     0.000 HD
ATOM     11   O  BGC C   1      21.922   5.123   1.9700  0.00  0.00     0.000 O
ATOM     13  HD  BGC C   1      22.606   4.793   1.5540  0.00  0.00     0.000 HD
ATOM     13   O  BGC C   1      24.849   6.333   4.0380  0.00  0.00     0.000 O
ATOM     15  HD  BGC C   1      25.533   6.003   3.6230  0.00  0.00     0.000 HD
ATOM     15   C  BGC C   1      23.513   5.899   4.4140  0.00  0.00     0.000 C
ENDROOT
BRANCH 1 16
ATOM     16  O4  BGC C   2      22.220  10.265   3.7620  0.00  0.00     0.000 O
BRANCH 16 20
ATOM     17  C1  BGC C   2      21.411  13.000   6.6840  0.00  0.00     0.000 C
ATOM     18  C2  BGC C   2      22.394  11.902   7.0560  0.00  0.00     0.000 C
ATOM     19  C3  BGC C   2      22.891  11.178   5.8120  0.00  0.00     0.000 C
ATOM     20  C4  BGC C   2      21.725  10.737   4.9920  0.00  0.00     0.000 C
ATOM     21  C5  BGC C   2      20.763  11.895   4.7410  0.00  0.00     0.000 C
ATOM     22  O5  BGC C   2      20.349  12.469   5.9440  0.00  0.00     0.000 O
ATOM     23   O  BGC C   2      23.494  12.487   7.7690  0.00  0.00     0.000 O
ATOM     25  HD  BGC C   2      24.239  12.124   7.5160  0.00  0.00     0.000 HD
ATOM     25   O  BGC C   2      23.658  10.047   6.2050  0.00  0.00     0.000 O
ATOM     27  HD  BGC C   2      24.403   9.683   5.9530  0.00  0.00     0.000 HD
ATOM     27   C  BGC C   2      19.513  11.528   3.9140  0.00  0.00     0.000 C
ATOM     28   O  BGC C   2      18.809  10.420   4.4990  0.00  0.00     0.000 O
ATOM     30  HD  BGC C   2      19.553  10.057   4.2470  0.00  0.00     0.000 HD
BRANCH 17 30
ATOM     30  O4  BGC C   3      20.892  13.580   7.8620  0.00  0.00     0.000 O
BRANCH 30 34
ATOM     31  C1  BGC C   3      19.728  17.152   9.3510  0.00  0.00     0.000 C
ATOM     32  C2  BGC C   3      18.665  16.392   8.5230  0.00  0.00     0.000 C
ATOM     33  C3  BGC C   3      19.056  14.970   8.3200  0.00  0.00     0.000 C
ATOM     34  C4  BGC C   3      20.483  14.936   7.7670  0.00  0.00     0.000 C
ATOM     35  C5  BGC C   3      21.482  15.814   8.5620  0.00  0.00     0.000 C
ATOM     36  O5  BGC C   3      20.975  17.118   8.7030  0.00  0.00     0.000 O
ATOM     37   O  BGC C   3      17.330  16.379   8.9930  0.00  0.00     0.000 O
ATOM     39  HD  BGC C   3      17.962  15.929   8.6080  0.00  0.00     0.000 HD
ATOM     39   O  BGC C   3      18.123  14.316   7.4100  0.00  0.00     0.000 O
ATOM     41  HD  BGC C   3      18.755  13.866   7.0240  0.00  0.00     0.000 HD
ATOM     41   C  BGC C   3      22.886  15.948   7.9280  0.00  0.00     0.000 C
ATOM     42   O  BGC C   3      22.922  16.628   6.6230  0.00  0.00     0.000 O
ATOM     44  HD  BGC C   3      23.554  16.179   6.2370  0.00  0.00     0.000 HD
BRANCH 31 44
ATOM     44  O4  BGC C   4      19.359  18.478   9.5390  0.00  0.00     0.000 O
BRANCH 44 48
ATOM     45  C1  BGC C   4      19.312  21.588  12.2010  0.00  0.00     0.000 C
ATOM     46  C2  BGC C   4      20.760  21.296  11.6920  0.00  0.00     0.000 C
ATOM     47  C3  BGC C   4      20.498  20.347  10.5150  0.00  0.00     0.000 C
ATOM     48  C4  BGC C   4      19.618  19.134  10.7450  0.00  0.00     0.000 C
ATOM     49  C5  BGC C   4      18.269  19.673  11.2480  0.00  0.00     0.000 C
ATOM     50  O5  BGC C   4      18.437  20.462  12.3740  0.00  0.00     0.000 O
ATOM     51   O  BGC C   4      21.711  22.400  11.1950  0.00  0.00     0.000 O
ATOM     53  HD  BGC C   4      22.427  22.066  10.8400  0.00  0.00     0.000 HD
ATOM     53   O  BGC C   4      21.877  19.775  10.3360  0.00  0.00     0.000 O
ATOM     55  HD  BGC C   4      22.593  19.441   9.9810  0.00  0.00     0.000 HD
ATOM     55   C  BGC C   4      17.354  18.554  11.6720  0.00  0.00     0.000 C
ATOM     56   O  BGC C   4      17.880  17.667  12.6670  0.00  0.00     0.000 O
ATOM     58  HD  BGC C   4      18.595  17.333  12.3110  0.00  0.00     0.000 HD
BRANCH 45 58
ATOM     58  O4  BGC C   5      19.309  22.249  13.4320  0.00  0.00     0.000 O
BRANCH 58 62
ATOM     59  C1  BGC C   5      20.062  25.181  12.9950  0.00  0.00     0.000 C
ATOM     60  C2  BGC C   5      19.798  25.033  14.4090  0.00  0.00     0.000 C
ATOM     61  C3  BGC C   5      18.539  24.226  14.7170  0.00  0.00     0.000 C
ATOM     62  C4  BGC C   5      18.280  23.260  13.5700  0.00  0.00     0.000 C
ATOM     63  C5  BGC C   5      18.465  24.030  12.2840  0.00  0.00     0.000 C
ATOM     64  O5  BGC C   5      19.129  25.291  12.3400  0.00  0.00     0.000 O
ATOM     65   O  BGC C   5      16.260  25.015  12.2870  0.00  0.00     0.000 O
ATOM     67  HD  BGC C   5      16.763  24.366  12.0140  0.00  0.00     0.000 HD
ATOM     67   O  BGC C   5      16.260  25.015  12.2870  0.00  0.00     0.000 O
ATOM     69  HD  BGC C   5      16.763  24.366  12.0140  0.00  0.00     0.000 HD
ENDBRANCH 58 62
ENDBRANCH 45 58
ENDBRANCH 44 48
ENDBRANCH 31 44
ENDBRANCH 30 34
ENDBRANCH 17 30
ENDBRANCH 16 20
ENDBRANCH 1 16
TORSDOF 8
ENDMDL
MODEL 33
REMARK VINA RESULT:      -1.5     11.588     20.061
ROOT
ATOM      1  C1  BGC C   1      30.627   7.842  18.4810  0.00  0.00     0.000 C
ATOM      2  C2  BGC C   1      32.076   7.547  18.8660  0.00  0.00     0.000 C
ATOM      3  C3  BGC C   1      32.152   7.117  20.3260  0.00  0.00     0.000 C
ATOM      4  C4  BGC C   1      31.423   8.081  21.2480  0.00  0.00     0.000 C
ATOM      5  C5  BGC C   1      30.049   8.420  20.6770  0.00  0.00     0.000 C
ATOM      6  O5  BGC C   1      30.070   8.770  19.3300  0.00  0.00     0.000 O
ATOM      7   O  BGC C   1      32.535   6.514  18.0270  0.00  0.00     0.000 O
ATOM      9  HD  BGC C   1      33.026   7.062  18.4830  0.00  0.00     0.000 HD
ATOM      9   O  BGC C   1      33.535   6.980  20.6780  0.00  0.00     0.000 O
ATOM     11  HD  BGC C   1      34.026   7.528  21.1340  0.00  0.00     0.000 HD
ATOM     11   O  BGC C   1      31.308   7.436  22.5110  0.00  0.00     0.000 O
ATOM     13  HD  BGC C   1      31.800   7.984  22.9660  0.00  0.00     0.000 HD
ATOM     13   O  BGC C   1      30.216  10.827  21.2400  0.00  0.00     0.000 O
ATOM     15  HD  BGC C   1      30.708  11.376  21.6950  0.00  0.00     0.000 HD
ATOM     15   C  BGC C   1      29.474   9.600  21.4820  0.00  0.00     0.000 C
ENDROOT
BRANCH 1 16
ATOM     16  O4  BGC C   2      30.609   8.402  17.1890  0.00  0.00     0.000 O
BRANCH 16 20
ATOM     17  C1  BGC C   2      28.124   8.452  13.9490  0.00  0.00     0.000 C
ATOM     18  C2  BGC C   2      27.816   9.467  15.0390  0.00  0.00     0.000 C
ATOM     19  C3  BGC C   2      28.991   9.604  15.9970  0.00  0.00     0.000 C
ATOM     20  C4  BGC C   2      29.401   8.255  16.4810  0.00  0.00     0.000 C
ATOM     21  C5  BGC C   2      29.611   7.294  15.3150  0.00  0.00     0.000 C
ATOM     22  O5  BGC C   2      28.468   7.221  14.5170  0.00  0.00     0.000 O
ATOM     23   O  BGC C   2      27.517  10.730  14.4260  0.00  0.00     0.000 O
ATOM     25  HD  BGC C   2      27.877  11.373  14.8810  0.00  0.00     0.000 HD
ATOM     25   O  BGC C   2      28.603  10.415  17.0990  0.00  0.00     0.000 O
ATOM     27  HD  BGC C   2      28.962  11.058  17.5540  0.00  0.00     0.000 HD
ATOM     27   C  BGC C   2      30.019   5.863  15.7220  0.00  0.00     0.000 C
ATOM     28   O  BGC C   2      29.087   5.302  16.6600  0.00  0.00     0.000 O
ATOM     30  HD  BGC C   2      29.446   5.945  17.1150  0.00  0.00     0.000 HD
BRANCH 17 30
ATOM     30  O4  BGC C   3      26.979   8.272  13.1440  0.00  0.00     0.000 O
BRANCH 30 34
ATOM     31  C1  BGC C   3      25.916   7.651   9.2940  0.00  0.00     0.000 C
ATOM     32  C2  BGC C   3      26.323   6.388  10.0890  0.00  0.00     0.000 C
ATOM     33  C3  BGC C   3      26.356   6.661  11.5530  0.00  0.00     0.000 C
ATOM     34  C4  BGC C   3      27.214   7.906  11.7920  0.00  0.00     0.000 C
ATOM     35  C5  BGC C   3      26.845   9.104  10.8800  0.00  0.00     0.000 C
ATOM     36  O5  BGC C   3      26.822   8.699   9.5340  0.00  0.00     0.000 O
ATOM     37   O  BGC C   3      25.557   5.210   9.9180  0.00  0.00     0.000 O
ATOM     39  HD  BGC C   3      25.994   5.710  10.4740  0.00  0.00     0.000 HD
ATOM     39   O  BGC C   3      26.891   5.508  12.2680  0.00  0.00     0.000 O
ATOM     41  HD  BGC C   3      27.328   6.008  12.8240  0.00  0.00     0.000 HD
ATOM     41   C  BGC C   3      27.804  10.313  10.9660  0.00  0.00     0.000 C
ATOM     42   O  BGC C   3      29.181  10.055  10.5120  0.00  0.00     0.000 O
ATOM     44  HD  BGC C   3      29.618  10.555  11.0670  0.00  0.00     0.000 HD
BRANCH 31 44
ATOM     44  O4  BGC C   4      25.884   7.392   7.9300  0.00  0.00     0.000 O
BRANCH 44 48
ATOM     45  C1  BGC C   4      23.822   8.042   4.4530  0.00  0.00     0.000 C
ATOM     46  C2  BGC C   4      24.577   9.329   4.9160  0.00  0.00     0.000 C
ATOM     47  C3  BGC C   4      25.497   8.780   6.0150  0.00  0.00     0.000 C
ATOM     48  C4  BGC C   4      24.887   7.935   7.1160  0.00  0.00     0.000 C
ATOM     49  C5  BGC C   4      24.201   6.751   6.4160  0.00  0.00     0.000 C
ATOM     50  O5  BGC C   4      23.283   7.192   5.4770  0.00  0.00     0.000 O
ATOM     51   O  BGC C   4      25.441  10.180   3.9690  0.00  0.00     0.000 O
ATOM     53  HD  BGC C   4      25.882  10.788   4.4010  0.00  0.00     0.000 HD
ATOM     53   O  BGC C   4      25.873  10.066   6.7000  0.00  0.00     0.000 O
ATOM     55  HD  BGC C   4      26.314  10.673   7.1320  0.00  0.00     0.000 HD
ATOM     55   C  BGC C   4      23.412   5.918   7.3930  0.00  0.00     0.000 C
ATOM     56   O  BGC C   4      22.422   6.624   8.1500  0.00  0.00     0.000 O
ATOM     58  HD  BGC C   4      22.863   7.231   8.5820  0.00  0.00     0.000 HD
BRANCH 45 58
ATOM     58  O4  BGC C   5      22.746   8.336   3.6130  0.00  0.00     0.000 O
BRANCH 58 62
ATOM     59  C1  BGC C   5      23.079   8.032   0.5880  0.00  0.00     0.000 C
ATOM     60  C2  BGC C   5      21.684   8.337   0.8170  0.00  0.00     0.000 C
ATOM     61  C3  BGC C   5      21.065   7.547   1.9670  0.00  0.00     0.000 C
ATOM     62  C4  BGC C   5      22.159   7.183   2.9600  0.00  0.00     0.000 C
ATOM     63  C5  BGC C   5      23.339   6.678   2.1620  0.00  0.00     0.000 C
ATOM     64  O5  BGC C   5      23.367   6.938   0.7600  0.00  0.00     0.000 O
ATOM     65   O  BGC C   5      22.488   4.434   1.8880  0.00  0.00     0.000 O
ATOM     67  HD  BGC C   5      22.984   4.970   2.3530  0.00  0.00     0.000 HD
ATOM     67   O  BGC C   5      22.488   4.434   1.8880  0.00  0.00     0.000 O
ATOM     69  HD  BGC C   5      22.984   4.970   2.3530  0.00  0.00     0.000 HD
ENDBRANCH 58 62
ENDBRANCH 45 58
ENDBRANCH 44 48
ENDBRANCH 31 44
ENDBRANCH 30 34
ENDBRANCH 17 30
ENDBRANCH 16 20
ENDBRANCH 1 16
TORSDOF 8
ENDMDL
MODEL 34
REMARK VINA RESULT:      -1.5      8.843     20.256
ROOT
ATOM      1  C1  BGC C   1      33.657  12.409   7.9640  0.00  0.00     0.000 C
ATOM      2  C2  BGC C   1      34.488  13.642   7.6150  0.00  0.00     0.000 C
ATOM      3  C3  BGC C   1      35.952  13.400   7.9620  0.00  0.00     0.000 C
ATOM      4  C4  BGC C   1      36.129  12.885   9.3810  0.00  0.00     0.000 C
ATOM      5  C5  BGC C   1      35.138  11.759   9.6610  0.00  0.00     0.000 C
ATOM      6  O5  BGC C   1      33.831  12.054   9.2820  0.00  0.00     0.000 O
ATOM      7   O  BGC C   1      34.345  13.871   6.2330  0.00  0.00     0.000 O
ATOM      9  HD  BGC C   1      34.618  14.443   6.8230  0.00  0.00     0.000 HD
ATOM      9   O  BGC C   1      36.670  14.622   7.7420  0.00  0.00     0.000 O
ATOM     11  HD  BGC C   1      36.943  15.194   8.3320  0.00  0.00     0.000 HD
ATOM     11   O  BGC C   1      37.471  12.423   9.4870  0.00  0.00     0.000 O
ATOM     13  HD  BGC C   1      37.744  12.995  10.0770  0.00  0.00     0.000 HD
ATOM     13   O  BGC C   1      34.593  12.569  11.9380  0.00  0.00     0.000 O
ATOM     15  HD  BGC C   1      34.867  13.141  12.5280  0.00  0.00     0.000 HD
ATOM     15   C  BGC C   1      35.157  11.468  11.1720  0.00  0.00     0.000 C
ENDROOT
BRANCH 1 16
ATOM     16  O4  BGC C   2      32.294  12.723   7.7990  0.00  0.00     0.000 O
BRANCH 16 20
ATOM     17  C1  BGC C   2      28.839  10.818   6.7440  0.00  0.00     0.000 C
ATOM     18  C2  BGC C   2      29.309  10.599   8.1730  0.00  0.00     0.000 C
ATOM     19  C3  BGC C   2      30.370  11.621   8.5550  0.00  0.00     0.000 C
ATOM     20  C4  BGC C   2      31.449  11.630   7.5250  0.00  0.00     0.000 C
ATOM     21  C5  BGC C   2      30.867  11.778   6.1230  0.00  0.00     0.000 C
ATOM     22  O5  BGC C   2      29.927  10.778   5.8650  0.00  0.00     0.000 O
ATOM     23   O  BGC C   2      28.179  10.696   9.0530  0.00  0.00     0.000 O
ATOM     25  HD  BGC C   2      28.398  11.125   9.7720  0.00  0.00     0.000 HD
ATOM     25   O  BGC C   2      30.917  11.276   9.8220  0.00  0.00     0.000 O
ATOM     27  HD  BGC C   2      31.136  11.705  10.5420  0.00  0.00     0.000 HD
ATOM     27   C  BGC C   2      31.910  11.778   4.9860  0.00  0.00     0.000 C
ATOM     28   O  BGC C   2      32.750  10.614   5.0500  0.00  0.00     0.000 O
ATOM     30  HD  BGC C   2      32.969  11.043   5.7700  0.00  0.00     0.000 HD
BRANCH 17 30
ATOM     30  O4  BGC C   3      27.937   9.793   6.3880  0.00  0.00     0.000 O
BRANCH 30 34
ATOM     31  C1  BGC C   3      24.523   9.218   4.3010  0.00  0.00     0.000 C
ATOM     32  C2  BGC C   3      25.832   9.145   3.4800  0.00  0.00     0.000 C
ATOM     33  C3  BGC C   3      27.020   9.020   4.3690  0.00  0.00     0.000 C
ATOM     34  C4  BGC C   3      26.954  10.130   5.4210  0.00  0.00     0.000 C
ATOM     35  C5  BGC C   3      25.578  10.240   6.1270  0.00  0.00     0.000 C
ATOM     36  O5  BGC C   3      24.549  10.321   5.1730  0.00  0.00     0.000 O
ATOM     37   O  BGC C   3      25.955   8.130   2.5010  0.00  0.00     0.000 O
ATOM     39  HD  BGC C   3      26.357   8.592   3.1130  0.00  0.00     0.000 HD
ATOM     39   O  BGC C   3      28.247   9.110   3.5860  0.00  0.00     0.000 O
ATOM     41  HD  BGC C   3      28.649   9.572   4.1990  0.00  0.00     0.000 HD
ATOM     41   C  BGC C   3      25.416  11.461   7.0610  0.00  0.00     0.000 C
ATOM     42   O  BGC C   3      25.473  12.773   6.3940  0.00  0.00     0.000 O
ATOM     44  HD  BGC C   3      25.875  13.235   7.0070  0.00  0.00     0.000 HD
BRANCH 31 44
ATOM     44  O4  BGC C   4      23.418   9.332   3.4680  0.00  0.00     0.000 O
BRANCH 44 48
ATOM     45  C1  BGC C   4      19.554   8.118   2.8690  0.00  0.00     0.000 C
ATOM     46  C2  BGC C   4      19.712   8.860   4.2350  0.00  0.00     0.000 C
ATOM     47  C3  BGC C   4      21.110   9.477   4.1020  0.00  0.00     0.000 C
ATOM     48  C4  BGC C   4      22.263   8.580   3.6960  0.00  0.00     0.000 C
ATOM     49  C5  BGC C   4      21.870   7.963   2.3440  0.00  0.00     0.000 C
ATOM     50  O5  BGC C   4      20.654   7.305   2.4320  0.00  0.00     0.000 O
ATOM     51   O  BGC C   4      18.755   9.974   4.6990  0.00  0.00     0.000 O
ATOM     53  HD  BGC C   4      19.044  10.361   5.4170  0.00  0.00     0.000 HD
ATOM     53   O  BGC C   4      21.385   9.803   5.5440  0.00  0.00     0.000 O
ATOM     55  HD  BGC C   4      21.674  10.191   6.2630  0.00  0.00     0.000 HD
ATOM     55   C  BGC C   4      22.864   6.918   1.9070  0.00  0.00     0.000 C
ATOM     56   O  BGC C   4      23.089   5.851   2.8360  0.00  0.00     0.000 O
ATOM     58  HD  BGC C   4      23.378   6.239   3.5540  0.00  0.00     0.000 HD
BRANCH 45 58
ATOM     58  O4  BGC C   5      18.442   7.274   2.8540  0.00  0.00     0.000 O
BRANCH 58 62
ATOM     59  C1  BGC C   5      16.386   5.011   2.9480  0.00  0.00     0.000 C
ATOM     60  C2  BGC C   5      15.760   6.159   3.5660  0.00  0.00     0.000 C
ATOM     61  C3  BGC C   5      16.666   6.900   4.5460  0.00  0.00     0.000 C
ATOM     62  C4  BGC C   5      18.116   6.683   4.1360  0.00  0.00     0.000 C
ATOM     63  C5  BGC C   5      18.278   5.214   3.8200  0.00  0.00     0.000 C
ATOM     64  O5  BGC C   5      17.102   4.430   3.6270  0.00  0.00     0.000 O
ATOM     65   O  BGC C   5      18.556   4.515   6.1150  0.00  0.00     0.000 O
ATOM     67  HD  BGC C   5      18.943   4.754   5.3780  0.00  0.00     0.000 HD
ATOM     67   O  BGC C   5      18.556   4.515   6.1150  0.00  0.00     0.000 O
ATOM     69  HD  BGC C   5      18.943   4.754   5.3780  0.00  0.00     0.000 HD
ENDBRANCH 58 62
ENDBRANCH 45 58
ENDBRANCH 44 48
ENDBRANCH 31 44
ENDBRANCH 30 34
ENDBRANCH 17 30
ENDBRANCH 16 20
ENDBRANCH 1 16
TORSDOF 8
ENDMDL
MODEL 35
REMARK VINA RESULT:      -1.5     11.670     17.575
ROOT
ATOM      1  C1  BGC C   1      20.665  20.810  11.5510  0.00  0.00     0.000 C
ATOM      2  C2  BGC C   1      21.988  21.574  11.5160  0.00  0.00     0.000 C
ATOM      3  C3  BGC C   1      22.282  22.172  12.8870  0.00  0.00     0.000 C
ATOM      4  C4  BGC C   1      21.101  22.952  13.4390  0.00  0.00     0.000 C
ATOM      5  C5  BGC C   1      19.814  22.149  13.2770  0.00  0.00     0.000 C
ATOM      6  O5  BGC C   1      19.643  21.613  12.0030  0.00  0.00     0.000 O
ATOM      7   O  BGC C   1      22.995  20.660  11.1540  0.00  0.00     0.000 O
ATOM      9  HD  BGC C   1      23.044  21.523  11.1080  0.00  0.00     0.000 HD
ATOM      9   O  BGC C   1      23.458  22.985  12.7740  0.00  0.00     0.000 O
ATOM     11  HD  BGC C   1      23.507  23.849  12.7280  0.00  0.00     0.000 HD
ATOM     11   O  BGC C   1      21.379  23.202  14.8130  0.00  0.00     0.000 O
ATOM     13  HD  BGC C   1      21.428  24.065  14.7660  0.00  0.00     0.000 HD
ATOM     13   O  BGC C   1      18.475  24.107  12.5640  0.00  0.00     0.000 O
ATOM     15  HD  BGC C   1      18.524  24.970  12.5170  0.00  0.00     0.000 HD
ATOM     15   C  BGC C   1      18.626  23.079  13.5810  0.00  0.00     0.000 C
ENDROOT
BRANCH 1 16
ATOM     16  O4  BGC C   2      20.334  20.422  10.2380  0.00  0.00     0.000 O
BRANCH 16 20
ATOM     17  C1  BGC C   2      18.362  17.356   8.3980  0.00  0.00     0.000 C
ATOM     18  C2  BGC C   2      17.492  18.490   8.9160  0.00  0.00     0.000 C
ATOM     19  C3  BGC C   2      18.337  19.714   9.2410  0.00  0.00     0.000 C
ATOM     20  C4  BGC C   2      19.465  19.319  10.1330  0.00  0.00     0.000 C
ATOM     21  C5  BGC C   2      20.225  18.127   9.5610  0.00  0.00     0.000 C
ATOM     22  O5  BGC C   2      19.365  17.053   9.3250  0.00  0.00     0.000 O
ATOM     23   O  BGC C   2      16.507  18.810   7.9220  0.00  0.00     0.000 O
ATOM     25  HD  BGC C   2      16.403  19.669   7.8720  0.00  0.00     0.000 HD
ATOM     25   O  BGC C   2      17.525  20.684   9.8920  0.00  0.00     0.000 O
ATOM     27  HD  BGC C   2      17.421  21.542   9.8410  0.00  0.00     0.000 HD
ATOM     27   C  BGC C   2      21.402  17.634  10.4280  0.00  0.00     0.000 C
ATOM     28   O  BGC C   2      20.976  17.348  11.7700  0.00  0.00     0.000 O
ATOM     30  HD  BGC C   2      20.872  18.206  11.7190  0.00  0.00     0.000 HD
BRANCH 17 30
ATOM     30  O4  BGC C   3      17.564  16.207   8.2080  0.00  0.00     0.000 O
BRANCH 30 34
ATOM     31  C1  BGC C   3      17.139  13.108   5.6480  0.00  0.00     0.000 C
ATOM     32  C2  BGC C   3      18.113  12.875   6.8270  0.00  0.00     0.000 C
ATOM     33  C3  BGC C   3      17.940  13.912   7.8820  0.00  0.00     0.000 C
ATOM     34  C4  BGC C   3      18.010  15.290   7.2200  0.00  0.00     0.000 C
ATOM     35  C5  BGC C   3      17.108  15.429   5.9670  0.00  0.00     0.000 C
ATOM     36  O5  BGC C   3      17.355  14.373   5.0730  0.00  0.00     0.000 O
ATOM     37   O  BGC C   3      18.083  11.623   7.4870  0.00  0.00     0.000 O
ATOM     39  HD  BGC C   3      18.171  12.480   7.5730  0.00  0.00     0.000 HD
ATOM     39   O  BGC C   3      18.968  13.767   8.9060  0.00  0.00     0.000 O
ATOM     41  HD  BGC C   3      19.056  14.624   8.9920  0.00  0.00     0.000 HD
ATOM     41   C  BGC C   3      17.291  16.741   5.1690  0.00  0.00     0.000 C
ATOM     42   O  BGC C   3      18.617  16.922   4.5560  0.00  0.00     0.000 O
ATOM     44  HD  BGC C   3      18.706  17.779   4.6420  0.00  0.00     0.000 HD
BRANCH 31 44
ATOM     44  O4  BGC C   4      17.303  12.138   4.6680  0.00  0.00     0.000 O
BRANCH 44 48
ATOM     45  C1  BGC C   4      15.363   9.827   1.9010  0.00  0.00     0.000 C
ATOM     46  C2  BGC C   4      15.475  11.310   1.4250  0.00  0.00     0.000 C
ATOM     47  C3  BGC C   4      16.476  11.893   2.4310  0.00  0.00     0.000 C
ATOM     48  C4  BGC C   4      16.219  11.687   3.9110  0.00  0.00     0.000 C
ATOM     49  C5  BGC C   4      16.139  10.167   4.1250  0.00  0.00     0.000 C
ATOM     50  O5  BGC C   4      15.176   9.600   3.3060  0.00  0.00     0.000 O
ATOM     51   O  BGC C   4      15.951  11.704   0.0150  0.00  0.00     0.000 O
ATOM     53  HD  BGC C   4      16.069  12.559  -0.0530  0.00  0.00     0.000 HD
ATOM     53   O  BGC C   4      16.233  13.361   2.2130  0.00  0.00     0.000 O
ATOM     55  HD  BGC C   4      16.351  14.216   2.1460  0.00  0.00     0.000 HD
ATOM     55   C  BGC C   4      15.721   9.832   5.5330  0.00  0.00     0.000 C
ATOM     56   O  BGC C   4      14.484  10.409   5.9660  0.00  0.00     0.000 O
ATOM     58  HD  BGC C   4      14.601  11.264   5.8990  0.00  0.00     0.000 HD
BRANCH 45 58
ATOM     58  O4  BGC C   5      14.314   9.150   1.2750  0.00  0.00     0.000 O
BRANCH 58 62
ATOM     59  C1  BGC C   5      11.971   7.575   0.1000  0.00  0.00     0.000 C
ATOM     60  C2  BGC C   5      11.394   8.679   0.8350  0.00  0.00     0.000 C
ATOM     61  C3  BGC C   5      12.028   8.901   2.2060  0.00  0.00     0.000 C
ATOM     62  C4  BGC C   5      13.463   8.395   2.1730  0.00  0.00     0.000 C
ATOM     63  C5  BGC C   5      13.449   7.050   1.4850  0.00  0.00     0.000 C
ATOM     64  O5  BGC C   5      12.288   6.682   0.7430  0.00  0.00     0.000 O
ATOM     65   O  BGC C   5      12.785   5.799   3.4420  0.00  0.00     0.000 O
ATOM     67  HD  BGC C   5      13.439   6.085   2.9520  0.00  0.00     0.000 HD
ATOM     67   O  BGC C   5      12.785   5.799   3.4420  0.00  0.00     0.000 O
ATOM     69  HD  BGC C   5      13.439   6.085   2.9520  0.00  0.00     0.000 HD
ENDBRANCH 58 62
ENDBRANCH 45 58
ENDBRANCH 44 48
ENDBRANCH 31 44
ENDBRANCH 30 34
ENDBRANCH 17 30
ENDBRANCH 16 20
ENDBRANCH 1 16
TORSDOF 8
ENDMDL
MODEL 36
REMARK VINA RESULT:      -1.4     10.597     20.466
ROOT
ATOM      1  C1  BGC C   1      31.824   8.073  18.2580  0.00  0.00     0.000 C
ATOM      2  C2  BGC C   1      32.705   9.285  18.5590  0.00  0.00     0.000 C
ATOM      3  C3  BGC C   1      33.848   8.883  19.4830  0.00  0.00     0.000 C
ATOM      4  C4  BGC C   1      33.359   8.123  20.7050  0.00  0.00     0.000 C
ATOM      5  C5  BGC C   1      32.367   7.040  20.2900  0.00  0.00     0.000 C
ATOM      6  O5  BGC C   1      31.377   7.488  19.4200  0.00  0.00     0.000 O
ATOM      7   O  BGC C   1      33.211   9.755  17.3320  0.00  0.00     0.000 O
ATOM      9  HD  BGC C   1      33.173  10.197  18.0750  0.00  0.00     0.000 HD
ATOM      9   O  BGC C   1      34.568  10.070  19.8430  0.00  0.00     0.000 O
ATOM     11  HD  BGC C   1      34.530  10.512  20.5860  0.00  0.00     0.000 HD
ATOM     11   O  BGC C   1      34.508   7.554  21.3230  0.00  0.00     0.000 O
ATOM     13  HD  BGC C   1      34.470   7.997  22.0670  0.00  0.00     0.000 HD
ATOM     13   O  BGC C   1      30.823   7.488  22.1760  0.00  0.00     0.000 O
ATOM     15  HD  BGC C   1      30.785   7.930  22.9190  0.00  0.00     0.000 HD
ATOM     15   C  BGC C   1      31.692   6.496  21.5630  0.00  0.00     0.000 C
ENDROOT
BRANCH 1 16
ATOM     16  O4  BGC C   2      30.686   8.508  17.5510  0.00  0.00     0.000 O
BRANCH 16 20
ATOM     17  C1  BGC C   2      28.134   7.029  14.7280  0.00  0.00     0.000 C
ATOM     18  C2  BGC C   2      27.824   6.650  16.1680  0.00  0.00     0.000 C
ATOM     19  C3  BGC C   2      28.597   7.534  17.1360  0.00  0.00     0.000 C
ATOM     20  C4  BGC C   2      30.044   7.526  16.7740  0.00  0.00     0.000 C
ATOM     21  C5  BGC C   2      30.240   7.842  15.2940  0.00  0.00     0.000 C
ATOM     22  O5  BGC C   2      29.511   6.959  14.4950  0.00  0.00     0.000 O
ATOM     23   O  BGC C   2      26.411   6.781  16.3870  0.00  0.00     0.000 O
ATOM     25  HD  BGC C   2      26.263   7.127  17.1670  0.00  0.00     0.000 HD
ATOM     25   O  BGC C   2      28.429   7.036  18.4580  0.00  0.00     0.000 O
ATOM     27  HD  BGC C   2      28.281   7.383  19.2380  0.00  0.00     0.000 HD
ATOM     27   C  BGC C   2      31.709   7.837  14.8210  0.00  0.00     0.000 C
ATOM     28   O  BGC C   2      32.357   6.597  15.1490  0.00  0.00     0.000 O
ATOM     30  HD  BGC C   2      32.208   6.944  15.9290  0.00  0.00     0.000 HD
BRANCH 17 30
ATOM     30  O4  BGC C   3      27.485   6.125  13.8590  0.00  0.00     0.000 O
BRANCH 30 34
ATOM     31  C1  BGC C   3      25.594   6.041  10.2870  0.00  0.00     0.000 C
ATOM     32  C2  BGC C   3      27.130   5.862  10.2380  0.00  0.00     0.000 C
ATOM     33  C3  BGC C   3      27.682   5.561  11.5880  0.00  0.00     0.000 C
ATOM     34  C4  BGC C   3      27.164   6.618  12.5670  0.00  0.00     0.000 C
ATOM     35  C5  BGC C   3      25.633   6.847  12.4870  0.00  0.00     0.000 C
ATOM     36  O5  BGC C   3      25.248   7.090  11.1570  0.00  0.00     0.000 O
ATOM     37   O  BGC C   3      27.666   4.889   9.3600  0.00  0.00     0.000 O
ATOM     39  HD  BGC C   3      27.728   5.272  10.1340  0.00  0.00     0.000 HD
ATOM     39   O  BGC C   3      29.139   5.551  11.5470  0.00  0.00     0.000 O
ATOM     41  HD  BGC C   3      29.201   5.935  12.3210  0.00  0.00     0.000 HD
ATOM     41   C  BGC C   3      25.102   8.031  13.3280  0.00  0.00     0.000 C
ATOM     42   O  BGC C   3      25.586   9.360  12.9160  0.00  0.00     0.000 O
ATOM     44  HD  BGC C   3      25.648   9.743  13.6900  0.00  0.00     0.000 HD
BRANCH 31 44
ATOM     44  O4  BGC C   4      25.084   6.320   9.0260  0.00  0.00     0.000 O
BRANCH 44 48
ATOM     45  C1  BGC C   4      21.907   5.711   6.5180  0.00  0.00     0.000 C
ATOM     46  C2  BGC C   4      21.626   6.877   7.5190  0.00  0.00     0.000 C
ATOM     47  C3  BGC C   4      23.017   7.124   8.1170  0.00  0.00     0.000 C
ATOM     48  C4  BGC C   4      23.787   5.941   8.6730  0.00  0.00     0.000 C
ATOM     49  C5  BGC C   4      23.923   4.938   7.5170  0.00  0.00     0.000 C
ATOM     50  O5  BGC C   4      22.682   4.603   7.0000  0.00  0.00     0.000 O
ATOM     51   O  BGC C   4      21.061   8.240   7.0800  0.00  0.00     0.000 O
ATOM     53  HD  BGC C   4      21.074   8.813   7.7290  0.00  0.00     0.000 HD
ATOM     53   O  BGC C   4      22.634   7.921   9.3340  0.00  0.00     0.000 O
ATOM     55  HD  BGC C   4      22.647   8.494   9.9830  0.00  0.00     0.000 HD
ATOM     55   C  BGC C   4      24.529   3.640   7.9850  0.00  0.00     0.000 C
ATOM     56   O  BGC C   4      23.845   2.990   9.0630  0.00  0.00     0.000 O
ATOM     58  HD  BGC C   4      23.858   3.562   9.7120  0.00  0.00     0.000 HD
BRANCH 45 58
ATOM     58  O4  BGC C   5      20.729   5.148   6.0210  0.00  0.00     0.000 O
BRANCH 58 62
ATOM     59  C1  BGC C   5      19.503   6.888   3.8250  0.00  0.00     0.000 C
ATOM     60  C2  BGC C   5      18.665   5.713   3.9310  0.00  0.00     0.000 C
ATOM     61  C3  BGC C   5      19.450   4.407   4.0280  0.00  0.00     0.000 C
ATOM     62  C4  BGC C   5      20.810   4.695   4.6470  0.00  0.00     0.000 C
ATOM     63  C5  BGC C   5      21.358   5.931   3.9730  0.00  0.00     0.000 C
ATOM     64  O5  BGC C   5      20.461   6.742   3.2160  0.00  0.00     0.000 O
ATOM     65   O  BGC C   5      22.204   4.776   2.0270  0.00  0.00     0.000 O
ATOM     67  HD  BGC C   5      22.374   5.086   2.8180  0.00  0.00     0.000 HD
ATOM     67   O  BGC C   5      22.204   4.776   2.0270  0.00  0.00     0.000 O
ATOM     69  HD  BGC C   5      22.374   5.086   2.8180  0.00  0.00     0.000 HD
ENDBRANCH 58 62
ENDBRANCH 45 58
ENDBRANCH 44 48
ENDBRANCH 31 44
ENDBRANCH 30 34
ENDBRANCH 17 30
ENDBRANCH 16 20
ENDBRANCH 1 16
TORSDOF 8
ENDMDL
MODEL 37
REMARK VINA RESULT:      -1.4     11.586     17.662
ROOT
ATOM      1  C1  BGC C   1      22.208   8.560   3.8210  0.00  0.00     0.000 C
ATOM      2  C2  BGC C   1      22.016   8.586   2.3050  0.00  0.00     0.000 C
ATOM      3  C3  BGC C   1      21.718   7.182   1.7920  0.00  0.00     0.000 C
ATOM      4  C4  BGC C   1      22.723   6.160   2.2970  0.00  0.00     0.000 C
ATOM      5  C5  BGC C   1      22.946   6.335   3.7960  0.00  0.00     0.000 C
ATOM      6  O5  BGC C   1      23.179   7.653   4.1790  0.00  0.00     0.000 O
ATOM      7   O  BGC C   1      20.937   9.447   2.0300  0.00  0.00     0.000 O
ATOM      9  HD  BGC C   1      21.545   9.190   1.4690  0.00  0.00     0.000 HD
ATOM      9   O  BGC C   1      21.676   7.232   0.3590  0.00  0.00     0.000 O
ATOM     11  HD  BGC C   1      22.285   6.975  -0.2010  0.00  0.00     0.000 HD
ATOM     11   O  BGC C   1      22.184   4.875   2.0060  0.00  0.00     0.000 O
ATOM     13  HD  BGC C   1      22.792   4.618   1.4450  0.00  0.00     0.000 HD
ATOM     13   O  BGC C   1      25.398   6.012   3.6450  0.00  0.00     0.000 O
ATOM     15  HD  BGC C   1      26.006   5.756   3.0850  0.00  0.00     0.000 HD
ATOM     15   C  BGC C   1      24.163   5.483   4.2020  0.00  0.00     0.000 C
ENDROOT
BRANCH 1 16
ATOM     16  O4  BGC C   2      22.653   9.828   4.2400  0.00  0.00     0.000 O
BRANCH 16 20
ATOM     17  C1  BGC C   2      22.313  12.220   7.5320  0.00  0.00     0.000 C
ATOM     18  C2  BGC C   2      23.385  11.143   7.6010  0.00  0.00     0.000 C
ATOM     19  C3  BGC C   2      23.664  10.571   6.2180  0.00  0.00     0.000 C
ATOM     20  C4  BGC C   2      22.381  10.152   5.5830  0.00  0.00     0.000 C
ATOM     21  C5  BGC C   2      21.351  11.276   5.6350  0.00  0.00     0.000 C
ATOM     22  O5  BGC C   2      21.150  11.709   6.9470  0.00  0.00     0.000 O
ATOM     23   O  BGC C   2      24.579  11.713   8.1580  0.00  0.00     0.000 O
ATOM     25  HD  BGC C   2      25.275  11.415   7.7380  0.00  0.00     0.000 HD
ATOM     25   O  BGC C   2      24.529   9.448   6.3430  0.00  0.00     0.000 O
ATOM     27  HD  BGC C   2      25.225   9.150   5.9230  0.00  0.00     0.000 HD
ATOM     27   C  BGC C   2      19.981  10.927   5.0160  0.00  0.00     0.000 C
ATOM     28   O  BGC C   2      19.436   9.732   5.6000  0.00  0.00     0.000 O
ATOM     30  HD  BGC C   2      20.132   9.435   5.1790  0.00  0.00     0.000 HD
BRANCH 17 30
ATOM     30  O4  BGC C   3      22.005  12.654   8.8400  0.00  0.00     0.000 O
BRANCH 30 34
ATOM     31  C1  BGC C   3      21.023  15.999  10.8850  0.00  0.00     0.000 C
ATOM     32  C2  BGC C   3      19.850  15.272  10.1850  0.00  0.00     0.000 C
ATOM     33  C3  BGC C   3      20.241  13.898   9.7650  0.00  0.00     0.000 C
ATOM     34  C4  BGC C   3      21.543  13.990   8.9650  0.00  0.00     0.000 C
ATOM     35  C5  BGC C   3      22.643  14.835   9.6560  0.00  0.00     0.000 C
ATOM     36  O5  BGC C   3      22.130  16.091  10.0230  0.00  0.00     0.000 O
ATOM     37   O  BGC C   3      18.625  15.144  10.8840  0.00  0.00     0.000 O
ATOM     39  HD  BGC C   3      19.190  14.768  10.3460  0.00  0.00     0.000 HD
ATOM     39   O  BGC C   3      19.179  13.290   8.9730  0.00  0.00     0.000 O
ATOM     41  HD  BGC C   3      19.743  12.914   8.4350  0.00  0.00     0.000 HD
ATOM     41   C  BGC C   3      23.901  15.102   8.7980  0.00  0.00     0.000 C
ATOM     42   O  BGC C   3      23.675  15.909   7.5870  0.00  0.00     0.000 O
ATOM     44  HD  BGC C   3      24.240  15.532   7.0490  0.00  0.00     0.000 HD
BRANCH 31 44
ATOM     44  O4  BGC C   4      20.653  17.279  11.2760  0.00  0.00     0.000 O
BRANCH 44 48
ATOM     45  C1  BGC C   4      21.004  20.107  14.2150  0.00  0.00     0.000 C
ATOM     46  C2  BGC C   4      22.346  19.927  13.4360  0.00  0.00     0.000 C
ATOM     47  C3  BGC C   4      21.903  19.088  12.2300  0.00  0.00     0.000 C
ATOM     48  C4  BGC C   4      21.105  17.823  12.4810  0.00  0.00     0.000 C
ATOM     49  C5  BGC C   4      19.853  18.255  13.2630  0.00  0.00     0.000 C
ATOM     50  O5  BGC C   4      20.199  18.935  14.4180  0.00  0.00     0.000 O
ATOM     51   O  BGC C   4      23.169  21.112  12.9000  0.00  0.00     0.000 O
ATOM     53  HD  BGC C   4      23.819  20.844  12.3940  0.00  0.00     0.000 HD
ATOM     53   O  BGC C   4      23.242  18.593  11.7570  0.00  0.00     0.000 O
ATOM     55  HD  BGC C   4      23.891  18.325  11.2510  0.00  0.00     0.000 HD
ATOM     55   C  BGC C   4      19.053  17.063  13.7190  0.00  0.00     0.000 C
ATOM     56   O  BGC C   4      19.765  16.105  14.5110  0.00  0.00     0.000 O
ATOM     58  HD  BGC C   4      20.415  15.837  14.0050  0.00  0.00     0.000 HD
BRANCH 45 58
ATOM     58  O4  BGC C   5      21.202  20.643  15.4900  0.00  0.00     0.000 O
BRANCH 58 62
ATOM     59  C1  BGC C   5      22.189  21.491  18.2570  0.00  0.00     0.000 C
ATOM     60  C2  BGC C   5      23.176  20.572  17.7350  0.00  0.00     0.000 C
ATOM     61  C3  BGC C   5      22.573  19.329  17.0860  0.00  0.00     0.000 C
ATOM     62  C4  BGC C   5      21.186  19.670  16.5630  0.00  0.00     0.000 C
ATOM     63  C5  BGC C   5      20.479  20.453  17.6440  0.00  0.00     0.000 C
ATOM     64  O5  BGC C   5      21.260  20.995  18.7070  0.00  0.00     0.000 O
ATOM     65   O  BGC C   5      19.800  18.519  18.9220  0.00  0.00     0.000 O
ATOM     67  HD  BGC C   5      19.587  19.096  18.3130  0.00  0.00     0.000 HD
ATOM     67   O  BGC C   5      19.800  18.519  18.9220  0.00  0.00     0.000 O
ATOM     69  HD  BGC C   5      19.587  19.096  18.3130  0.00  0.00     0.000 HD
ENDBRANCH 58 62
ENDBRANCH 45 58
ENDBRANCH 44 48
ENDBRANCH 31 44
ENDBRANCH 30 34
ENDBRANCH 17 30
ENDBRANCH 16 20
ENDBRANCH 1 16
TORSDOF 8
ENDMDL
MODEL 38
REMARK VINA RESULT:      -1.3     11.936     17.648
ROOT
ATOM      1  C1  BGC C   1      20.453  20.527  14.0860  0.00  0.00     0.000 C
ATOM      2  C2  BGC C   1      21.847  21.144  14.1930  0.00  0.00     0.000 C
ATOM      3  C3  BGC C   1      21.999  21.861  15.5290  0.00  0.00     0.000 C
ATOM      4  C4  BGC C   1      20.849  22.816  15.8040  0.00  0.00     0.000 C
ATOM      5  C5  BGC C   1      19.516  22.134  15.5130  0.00  0.00     0.000 C
ATOM      6  O5  BGC C   1      19.477  21.477  14.2860  0.00  0.00     0.000 O
ATOM      7   O  BGC C   1      22.782  20.097  14.0900  0.00  0.00     0.000 O
ATOM      9  HD  BGC C   1      22.939  20.939  13.9690  0.00  0.00     0.000 HD
ATOM      9   O  BGC C   1      23.267  22.532  15.5320  0.00  0.00     0.000 O
ATOM     11  HD  BGC C   1      23.424  23.375  15.4100  0.00  0.00     0.000 HD
ATOM     11   O  BGC C   1      20.944  23.191  17.1740  0.00  0.00     0.000 O
ATOM     13  HD  BGC C   1      21.102  24.034  17.0530  0.00  0.00     0.000 HD
ATOM     13   O  BGC C   1      18.541  24.124  14.4050  0.00  0.00     0.000 O
ATOM     15  HD  BGC C   1      18.699  24.967  14.2840  0.00  0.00     0.000 HD
ATOM     15   C  BGC C   1      18.414  23.209  15.5290  0.00  0.00     0.000 C
ENDROOT
BRANCH 1 16
ATOM     16  O4  BGC C   2      20.280  20.028  12.7810  0.00  0.00     0.000 O
BRANCH 16 20
ATOM     17  C1  BGC C   2      18.210  17.032  10.9340  0.00  0.00     0.000 C
ATOM     18  C2  BGC C   2      17.430  18.307  11.2080  0.00  0.00     0.000 C
ATOM     19  C3  BGC C   2      18.371  19.453  11.5510  0.00  0.00     0.000 C
ATOM     20  C4  BGC C   2      19.299  19.028  12.6390  0.00  0.00     0.000 C
ATOM     21  C5  BGC C   2      19.972  17.702  12.2990  0.00  0.00     0.000 C
ATOM     22  O5  BGC C   2      19.021  16.716  12.0290  0.00  0.00     0.000 O
ATOM     23   O  BGC C   2      16.648  18.631  10.0480  0.00  0.00     0.000 O
ATOM     25  HD  BGC C   2      16.665  19.485   9.9070  0.00  0.00     0.000 HD
ATOM     25   O  BGC C   2      17.607  20.574  11.9800  0.00  0.00     0.000 O
ATOM     27  HD  BGC C   2      17.625  21.428  11.8380  0.00  0.00     0.000 HD
ATOM     27   C  BGC C   2      20.938  17.172  13.3790  0.00  0.00     0.000 C
ATOM     28   O  BGC C   2      20.289  17.081  14.6580  0.00  0.00     0.000 O
ATOM     30  HD  BGC C   2      20.307  17.935  14.5170  0.00  0.00     0.000 HD
BRANCH 17 30
ATOM     30  O4  BGC C   3      17.305  15.969  10.7230  0.00  0.00     0.000 O
BRANCH 30 34
ATOM     31  C1  BGC C   3      16.866  12.613   8.5130  0.00  0.00     0.000 C
ATOM     32  C2  BGC C   3      17.708  12.462   9.8030  0.00  0.00     0.000 C
ATOM     33  C3  BGC C   3      17.523  13.631  10.7070  0.00  0.00     0.000 C
ATOM     34  C4  BGC C   3      17.764  14.908   9.8990  0.00  0.00     0.000 C
ATOM     35  C5  BGC C   3      16.993  14.953   8.5550  0.00  0.00     0.000 C
ATOM     36  O5  BGC C   3      17.234  13.779   7.8190  0.00  0.00     0.000 O
ATOM     37   O  BGC C   3      17.517  11.306  10.5980  0.00  0.00     0.000 O
ATOM     39  HD  BGC C   3      17.666  12.159  10.5920  0.00  0.00     0.000 HD
ATOM     39   O  BGC C   3      18.439  13.543  11.8380  0.00  0.00     0.000 O
ATOM     41  HD  BGC C   3      18.588  14.396  11.8320  0.00  0.00     0.000 HD
ATOM     41   C  BGC C   3      17.352  16.140   7.6320  0.00  0.00     0.000 C
ATOM     42   O  BGC C   3      18.739  16.152   7.1360  0.00  0.00     0.000 O
ATOM     44  HD  BGC C   3      18.888  17.005   7.1310  0.00  0.00     0.000 HD
BRANCH 31 44
ATOM     44  O4  BGC C   4      17.040  11.520   7.6740  0.00  0.00     0.000 O
BRANCH 44 48
ATOM     45  C1  BGC C   4      15.156   8.975   5.0800  0.00  0.00     0.000 C
ATOM     46  C2  BGC C   4      15.433  10.361   4.4160  0.00  0.00     0.000 C
ATOM     47  C3  BGC C   4      16.390  11.011   5.4240  0.00  0.00     0.000 C
ATOM     48  C4  BGC C   4      15.990  11.042   6.8860  0.00  0.00     0.000 C
ATOM     49  C5  BGC C   4      15.764   9.579   7.2990  0.00  0.00     0.000 C
ATOM     50  O5  BGC C   4      14.831   8.969   6.4780  0.00  0.00     0.000 O
ATOM     51   O  BGC C   4      16.059  10.511   3.0180  0.00  0.00     0.000 O
ATOM     53  HD  BGC C   4      16.254  11.336   2.8440  0.00  0.00     0.000 HD
ATOM     53   O  BGC C   4      16.291  12.446   4.9820  0.00  0.00     0.000 O
ATOM     55  HD  BGC C   4      16.486  13.271   4.8080  0.00  0.00     0.000 HD
ATOM     55   C  BGC C   4      15.201   9.483   8.6940  0.00  0.00     0.000 C
ATOM     56   O  BGC C   4      13.984  10.204   8.9210  0.00  0.00     0.000 O
ATOM     58  HD  BGC C   4      14.179  11.030   8.7470  0.00  0.00     0.000 HD
BRANCH 45 58
ATOM     58  O4  BGC C   5      14.111   8.290   4.4550  0.00  0.00     0.000 O
BRANCH 58 62
ATOM     59  C1  BGC C   5      12.113   6.824   2.6630  0.00  0.00     0.000 C
ATOM     60  C2  BGC C   5      12.157   6.092   3.9110  0.00  0.00     0.000 C
ATOM     61  C3  BGC C   5      13.571   5.869   4.4410  0.00  0.00     0.000 C
ATOM     62  C4  BGC C   5      14.470   6.987   3.9340  0.00  0.00     0.000 C
ATOM     63  C5  BGC C   5      14.166   7.176   2.4660  0.00  0.00     0.000 C
ATOM     64  O5  BGC C   5      12.973   6.597   1.9420  0.00  0.00     0.000 O
ATOM     65   O  BGC C   5      15.567   5.361   1.7060  0.00  0.00     0.000 O
ATOM     67  HD  BGC C   5      15.503   6.209   1.8660  0.00  0.00     0.000 HD
ATOM     67   O  BGC C   5      15.567   5.361   1.7060  0.00  0.00     0.000 O
ATOM     69  HD  BGC C   5      15.503   6.209   1.8660  0.00  0.00     0.000 HD
ENDBRANCH 58 62
ENDBRANCH 45 58
ENDBRANCH 44 48
ENDBRANCH 31 44
ENDBRANCH 30 34
ENDBRANCH 17 30
ENDBRANCH 16 20
ENDBRANCH 1 16
TORSDOF 8
ENDMDL
MODEL 39
REMARK VINA RESULT:      -1.3     11.633     20.039
ROOT
ATOM      1  C1  BGC C   1      24.658   7.873   1.8120  0.00  0.00     0.000 C
ATOM      2  C2  BGC C   1      23.825   8.498   0.6940  0.00  0.00     0.000 C
ATOM      3  C3  BGC C   1      22.361   8.568   1.1100  0.00  0.00     0.000 C
ATOM      4  C4  BGC C   1      21.846   7.236   1.6290  0.00  0.00     0.000 C
ATOM      5  C5  BGC C   1      22.839   6.637   2.6220  0.00  0.00     0.000 C
ATOM      6  O5  BGC C   1      24.156   6.643   2.1720  0.00  0.00     0.000 O
ATOM      7   O  BGC C   1      24.330   9.792   0.4630  0.00  0.00     0.000 O
ATOM      9  HD  BGC C   1      23.836   9.329  -0.0770  0.00  0.00     0.000 HD
ATOM      9   O  BGC C   1      21.601   9.036  -0.0120  0.00  0.00     0.000 O
ATOM     11  HD  BGC C   1      21.107   8.574  -0.5520  0.00  0.00     0.000 HD
ATOM     11   O  BGC C   1      20.592   7.493   2.2510  0.00  0.00     0.000 O
ATOM     13  HD  BGC C   1      20.098   7.030   1.7110  0.00  0.00     0.000 HD
ATOM     13   O  BGC C   1      22.612   4.337   1.7280  0.00  0.00     0.000 O
ATOM     15  HD  BGC C   1      22.118   3.875   1.1880  0.00  0.00     0.000 HD
ATOM     15   C  BGC C   1      22.421   5.181   2.8980  0.00  0.00     0.000 C
ENDROOT
BRANCH 1 16
ATOM     16  O4  BGC C   2      25.966   7.660   1.3350  0.00  0.00     0.000 O
BRANCH 16 20
ATOM     17  C1  BGC C   2      29.765   7.605   2.8310  0.00  0.00     0.000 C
ATOM     18  C2  BGC C   2      28.962   6.326   3.0080  0.00  0.00     0.000 C
ATOM     19  C3  BGC C   2      27.732   6.333   2.1120  0.00  0.00     0.000 C
ATOM     20  C4  BGC C   2      26.968   7.597   2.3210  0.00  0.00     0.000 C
ATOM     21  C5  BGC C   2      27.880   8.814   2.1970  0.00  0.00     0.000 C
ATOM     22  O5  BGC C   2      28.959   8.721   3.0780  0.00  0.00     0.000 O
ATOM     23   O  BGC C   2      29.803   5.205   2.6990  0.00  0.00     0.000 O
ATOM     25  HD  BGC C   2      29.355   4.612   2.2530  0.00  0.00     0.000 HD
ATOM     25   O  BGC C   2      26.912   5.216   2.4370  0.00  0.00     0.000 O
ATOM     27  HD  BGC C   2      26.464   4.624   1.9910  0.00  0.00     0.000 HD
ATOM     27   C  BGC C   2      27.179  10.171   2.4170  0.00  0.00     0.000 C
ATOM     28   O  BGC C   2      26.487  10.201   3.6760  0.00  0.00     0.000 O
ATOM     30  HD  BGC C   2      26.039   9.609   3.2300  0.00  0.00     0.000 HD
BRANCH 17 30
ATOM     30  O4  BGC C   3      30.837   7.613   3.7490  0.00  0.00     0.000 O
BRANCH 30 34
ATOM     31  C1  BGC C   3      34.703   8.757   4.0470  0.00  0.00     0.000 C
ATOM     32  C2  BGC C   3      33.654   9.861   4.3190  0.00  0.00     0.000 C
ATOM     33  C3  BGC C   3      32.299   9.278   4.5280  0.00  0.00     0.000 C
ATOM     34  C4  BGC C   3      31.993   8.339   3.3580  0.00  0.00     0.000 C
ATOM     35  C5  BGC C   3      33.131   7.334   3.0470  0.00  0.00     0.000 C
ATOM     36  O5  BGC C   3      34.352   8.016   2.9040  0.00  0.00     0.000 O
ATOM     37   O  BGC C   3      33.878  10.750   5.3980  0.00  0.00     0.000 O
ATOM     39  HD  BGC C   3      33.293  10.294   4.9500  0.00  0.00     0.000 HD
ATOM     39   O  BGC C   3      31.303  10.338   4.6270  0.00  0.00     0.000 O
ATOM     41  HD  BGC C   3      30.719   9.882   4.1790  0.00  0.00     0.000 HD
ATOM     41   C  BGC C   3      32.935   6.497   1.7630  0.00  0.00     0.000 C
ATOM     42   O  BGC C   3      32.919   7.268   0.5080  0.00  0.00     0.000 O
ATOM     44  HD  BGC C   3      32.334   6.812   0.0600  0.00  0.00     0.000 HD
BRANCH 31 44
ATOM     44  O4  BGC C   4      35.964   9.305   3.8550  0.00  0.00     0.000 O
BRANCH 44 48
ATOM     45  C1  BGC C   4      39.963   8.823   4.5870  0.00  0.00     0.000 C
ATOM     46  C2  BGC C   4      39.447   7.783   3.5420  0.00  0.00     0.000 C
ATOM     47  C3  BGC C   4      38.058   8.338   3.2010  0.00  0.00     0.000 C
ATOM     48  C4  BGC C   4      37.109   8.665   4.3370  0.00  0.00     0.000 C
ATOM     49  C5  BGC C   4      37.839   9.687   5.2240  0.00  0.00     0.000 C
ATOM     50  O5  BGC C   4      39.064   9.195   5.6430  0.00  0.00     0.000 O
ATOM     51   O  BGC C   4      40.172   7.498   2.2150  0.00  0.00     0.000 O
ATOM     53  HD  BGC C   4      39.701   6.987   1.6990  0.00  0.00     0.000 HD
ATOM     53   O  BGC C   4      37.451   7.126   2.5490  0.00  0.00     0.000 O
ATOM     55  HD  BGC C   4      36.979   6.615   2.0330  0.00  0.00     0.000 HD
ATOM     55   C  BGC C   4      37.065   9.972   6.4840  0.00  0.00     0.000 C
ATOM     56   O  BGC C   4      36.747   8.830   7.2880  0.00  0.00     0.000 O
ATOM     58  HD  BGC C   4      36.275   8.319   6.7720  0.00  0.00     0.000 HD
BRANCH 45 58
ATOM     58  O4  BGC C   5      41.127   8.393   5.2280  0.00  0.00     0.000 O
BRANCH 58 62
ATOM     59  C1  BGC C   5      44.162   8.676   5.4740  0.00  0.00     0.000 C
ATOM     60  C2  BGC C   5      43.714   8.021   6.6830  0.00  0.00     0.000 C
ATOM     61  C3  BGC C   5      42.469   8.656   7.2980  0.00  0.00     0.000 C
ATOM     62  C4  BGC C   5      41.663   9.328   6.1970  0.00  0.00     0.000 C
ATOM     63  C5  BGC C   5      42.636  10.100   5.3360  0.00  0.00     0.000 C
ATOM     64  O5  BGC C   5      44.027   9.813   5.4630  0.00  0.00     0.000 O
ATOM     65   O  BGC C   5      42.743  12.030   6.7850  0.00  0.00     0.000 O
ATOM     67  HD  BGC C   5      42.370  11.660   6.0960  0.00  0.00     0.000 HD
ATOM     67   O  BGC C   5      42.743  12.030   6.7850  0.00  0.00     0.000 O
ATOM     69  HD  BGC C   5      42.370  11.660   6.0960  0.00  0.00     0.000 HD
ENDBRANCH 58 62
ENDBRANCH 45 58
ENDBRANCH 44 48
ENDBRANCH 31 44
ENDBRANCH 30 34
ENDBRANCH 17 30
ENDBRANCH 16 20
ENDBRANCH 1 16
TORSDOF 8
ENDMDL
MODEL 40
REMARK VINA RESULT:      -1.3     12.147     17.643
ROOT
ATOM      1  C1  BGC C   1      20.942  22.459  10.0410  0.00  0.00     0.000 C
ATOM      2  C2  BGC C   1      22.321  22.957  10.4700  0.00  0.00     0.000 C
ATOM      3  C3  BGC C   1      22.180  24.202  11.3380  0.00  0.00     0.000 C
ATOM      4  C4  BGC C   1      21.286  25.251  10.6970  0.00  0.00     0.000 C
ATOM      5  C5  BGC C   1      20.008  24.605  10.1690  0.00  0.00     0.000 C
ATOM      6  O5  BGC C   1      20.230  23.456   9.4140  0.00  0.00     0.000 O
ATOM      7   O  BGC C   1      22.938  21.922  11.1970  0.00  0.00     0.000 O
ATOM      9  HD  BGC C   1      23.334  22.598  10.8290  0.00  0.00     0.000 HD
ATOM      9   O  BGC C   1      23.494  24.709  11.6060  0.00  0.00     0.000 O
ATOM     11  HD  BGC C   1      23.890  25.385  11.2390  0.00  0.00     0.000 HD
ATOM     11   O  BGC C   1      20.994  26.214  11.7040  0.00  0.00     0.000 O
ATOM     13  HD  BGC C   1      21.391  26.890  11.3360  0.00  0.00     0.000 HD
ATOM     13   O  BGC C   1      20.010  25.911   8.0640  0.00  0.00     0.000 O
ATOM     15  HD  BGC C   1      20.407  26.587   7.6960  0.00  0.00     0.000 HD
ATOM     15   C  BGC C   1      19.277  25.636   9.2900  0.00  0.00     0.000 C
ENDROOT
BRANCH 1 16
ATOM     16  O4  BGC C   2      21.110  21.422   9.1030  0.00  0.00     0.000 O
BRANCH 16 20
ATOM     17  C1  BGC C   2      19.176  18.002   7.9880  0.00  0.00     0.000 C
ATOM     18  C2  BGC C   2      18.638  19.294   7.3940  0.00  0.00     0.000 C
ATOM     19  C3  BGC C   2      19.635  20.429   7.5780  0.00  0.00     0.000 C
ATOM     20  C4  BGC C   2      20.041  20.509   9.0110  0.00  0.00     0.000 C
ATOM     21  C5  BGC C   2      20.491  19.147   9.5300  0.00  0.00     0.000 C
ATOM     22  O5  BGC C   2      19.496  18.187   9.3370  0.00  0.00     0.000 O
ATOM     23   O  BGC C   2      18.368  19.085   5.9990  0.00  0.00     0.000 O
ATOM     25  HD  BGC C   2      18.611  19.779   5.5420  0.00  0.00     0.000 HD
ATOM     25   O  BGC C   2      19.028  21.653   7.1800  0.00  0.00     0.000 O
ATOM     27  HD  BGC C   2      19.272  22.347   6.7230  0.00  0.00     0.000 HD
ATOM     27   C  BGC C   2      20.913  19.128  11.0140  0.00  0.00     0.000 C
ATOM     28   O  BGC C   2      19.877  19.659  11.8570  0.00  0.00     0.000 O
ATOM     30  HD  BGC C   2      20.121  20.353  11.3990  0.00  0.00     0.000 HD
BRANCH 17 30
ATOM     30  O4  BGC C   3      18.187  16.999   7.8950  0.00  0.00     0.000 O
BRANCH 30 34
ATOM     31  C1  BGC C   3      17.810  13.043   7.1560  0.00  0.00     0.000 C
ATOM     32  C2  BGC C   3      18.096  13.426   8.6280  0.00  0.00     0.000 C
ATOM     33  C3  BGC C   3      17.873  14.881   8.8580  0.00  0.00     0.000 C
ATOM     34  C4  BGC C   3      18.656  15.662   7.8010  0.00  0.00     0.000 C
ATOM     35  C5  BGC C   3      18.429  15.155   6.3530  0.00  0.00     0.000 C
ATOM     36  O5  BGC C   3      18.645  13.768   6.2870  0.00  0.00     0.000 O
ATOM     37   O  BGC C   3      17.390  12.746   9.6490  0.00  0.00     0.000 O
ATOM     39  HD  BGC C   3      17.717  13.501   9.3800  0.00  0.00     0.000 HD
ATOM     39   O  BGC C   3      18.296  15.248  10.2040  0.00  0.00     0.000 O
ATOM     41  HD  BGC C   3      18.623  16.004   9.9360  0.00  0.00     0.000 HD
ATOM     41   C  BGC C   3      19.340  15.799   5.2830  0.00  0.00     0.000 C
ATOM     42   O  BGC C   3      20.779  15.521   5.4330  0.00  0.00     0.000 O
ATOM     44  HD  BGC C   3      21.106  16.277   5.1650  0.00  0.00     0.000 HD
BRANCH 31 44
ATOM     44  O4  BGC C   4      18.017  11.686   6.9460  0.00  0.00     0.000 O
BRANCH 44 48
ATOM     45  C1  BGC C   4      16.647   8.382   4.9550  0.00  0.00     0.000 C
ATOM     46  C2  BGC C   4      16.977   9.545   3.9660  0.00  0.00     0.000 C
ATOM     47  C3  BGC C   4      17.743  10.522   4.8690  0.00  0.00     0.000 C
ATOM     48  C4  BGC C   4      17.120  10.928   6.1900  0.00  0.00     0.000 C
ATOM     49  C5  BGC C   4      16.881   9.625   6.9700  0.00  0.00     0.000 C
ATOM     50  O5  BGC C   4      16.108   8.741   6.2360  0.00  0.00     0.000 O
ATOM     51   O  BGC C   4      17.808   9.347   2.6860  0.00  0.00     0.000 O
ATOM     53  HD  BGC C   4      18.000  10.104   2.3110  0.00  0.00     0.000 HD
ATOM     53   O  BGC C   4      17.666  11.764   4.0250  0.00  0.00     0.000 O
ATOM     55  HD  BGC C   4      17.857  12.521   3.6500  0.00  0.00     0.000 HD
ATOM     55   C  BGC C   4      16.111   9.879   8.2400  0.00  0.00     0.000 C
ATOM     56   O  BGC C   4      14.850  10.539   8.0790  0.00  0.00     0.000 O
ATOM     58  HD  BGC C   4      15.042  11.296   7.7040  0.00  0.00     0.000 HD
BRANCH 45 58
ATOM     58  O4  BGC C   5      15.736   7.472   4.4130  0.00  0.00     0.000 O
BRANCH 58 62
ATOM     59  C1  BGC C   5      14.709   5.482   2.3310  0.00  0.00     0.000 C
ATOM     60  C2  BGC C   5      14.037   5.159   3.5710  0.00  0.00     0.000 C
ATOM     61  C3  BGC C   5      14.964   5.143   4.7830  0.00  0.00     0.000 C
ATOM     62  C4  BGC C   5      16.133   6.083   4.5230  0.00  0.00     0.000 C
ATOM     63  C5  BGC C   5      16.619   5.816   3.1180  0.00  0.00     0.000 C
ATOM     64  O5  BGC C   5      15.775   5.073   2.2400  0.00  0.00     0.000 O
ATOM     65   O  BGC C   5      17.963   3.895   3.7010  0.00  0.00     0.000 O
ATOM     67  HD  BGC C   5      17.939   4.751   3.5700  0.00  0.00     0.000 HD
ATOM     67   O  BGC C   5      17.963   3.895   3.7010  0.00  0.00     0.000 O
ATOM     69  HD  BGC C   5      17.939   4.751   3.5700  0.00  0.00     0.000 HD
ENDBRANCH 58 62
ENDBRANCH 45 58
ENDBRANCH 44 48
ENDBRANCH 31 44
ENDBRANCH 30 34
ENDBRANCH 17 30
ENDBRANCH 16 20
ENDBRANCH 1 16
TORSDOF 8
ENDMDL
MODEL 41
REMARK VINA RESULT:      -1.2     10.559     18.084
ROOT
ATOM      1  C1  BGC C   1      23.146   8.515   3.8380  0.00  0.00     0.000 C
ATOM      2  C2  BGC C   1      22.620   9.439   2.7400  0.00  0.00     0.000 C
ATOM      3  C3  BGC C   1      21.115   9.260   2.5840  0.00  0.00     0.000 C
ATOM      4  C4  BGC C   1      20.721   7.800   2.4390  0.00  0.00     0.000 C
ATOM      5  C5  BGC C   1      21.430   6.955   3.4940  0.00  0.00     0.000 C
ATOM      6  O5  BGC C   1      22.796   7.207   3.5900  0.00  0.00     0.000 O
ATOM      7   O  BGC C   1      22.919  10.761   3.1210  0.00  0.00     0.000 O
ATOM      9  HD  BGC C   1      22.724  10.488   2.3230  0.00  0.00     0.000 HD
ATOM      9   O  BGC C   1      20.688  10.044   1.4610  0.00  0.00     0.000 O
ATOM     11  HD  BGC C   1      20.493   9.771   0.6630  0.00  0.00     0.000 HD
ATOM     11   O  BGC C   1      19.308   7.737   2.5990  0.00  0.00     0.000 O
ATOM     13  HD  BGC C   1      19.113   7.464   1.8000  0.00  0.00     0.000 HD
ATOM     13   O  BGC C   1      21.946   5.111   1.9220  0.00  0.00     0.000 O
ATOM     15  HD  BGC C   1      21.751   4.838   1.1230  0.00  0.00     0.000 HD
ATOM     15   C  BGC C   1      21.229   5.471   3.1350  0.00  0.00     0.000 C
ENDROOT
BRANCH 1 16
ATOM     16  O4  BGC C   2      24.553   8.571   3.8380  0.00  0.00     0.000 O
BRANCH 16 20
ATOM     17  C1  BGC C   2      27.595   8.254   6.5440  0.00  0.00     0.000 C
ATOM     18  C2  BGC C   2      27.035   6.942   6.0160  0.00  0.00     0.000 C
ATOM     19  C3  BGC C   2      26.186   7.178   4.7750  0.00  0.00     0.000 C
ATOM     20  C4  BGC C   2      25.172   8.235   5.0570  0.00  0.00     0.000 C
ATOM     21  C5  BGC C   2      25.827   9.478   5.6530  0.00  0.00     0.000 C
ATOM     22  O5  BGC C   2      26.557   9.156   6.7990  0.00  0.00     0.000 O
ATOM     23   O  BGC C   2      28.126   6.059   5.7170  0.00  0.00     0.000 O
ATOM     25  HD  BGC C   2      27.969   5.631   4.9810  0.00  0.00     0.000 HD
ATOM     25   O  BGC C   2      25.532   5.966   4.4190  0.00  0.00     0.000 O
ATOM     27  HD  BGC C   2      25.374   5.538   3.6830  0.00  0.00     0.000 HD
ATOM     27   C  BGC C   2      24.850  10.621   5.9970  0.00  0.00     0.000 C
ATOM     28   O  BGC C   2      23.793  10.163   6.8550  0.00  0.00     0.000 O
ATOM     30  HD  BGC C   2      23.636   9.735   6.1180  0.00  0.00     0.000 HD
BRANCH 17 30
ATOM     30  O4  BGC C   3      28.288   8.013   7.7500  0.00  0.00     0.000 O
BRANCH 30 34
ATOM     31  C1  BGC C   3      31.555   9.238   9.7890  0.00  0.00     0.000 C
ATOM     32  C2  BGC C   3      30.286  10.103   9.9740  0.00  0.00     0.000 C
ATOM     33  C3  BGC C   3      29.074   9.394   9.4790  0.00  0.00     0.000 C
ATOM     34  C4  BGC C   3      29.348   8.906   8.0540  0.00  0.00     0.000 C
ATOM     35  C5  BGC C   3      30.694   8.153   7.8990  0.00  0.00     0.000 C
ATOM     36  O5  BGC C   3      31.743   8.922   8.4320  0.00  0.00     0.000 O
ATOM     37   O  BGC C   3      29.975  10.572  11.2730  0.00  0.00     0.000 O
ATOM     39  HD  BGC C   3      29.665  10.263  10.5250  0.00  0.00     0.000 HD
ATOM     39   O  BGC C   3      27.918  10.283   9.5170  0.00  0.00     0.000 O
ATOM     41  HD  BGC C   3      27.609   9.974   8.7700  0.00  0.00     0.000 HD
ATOM     41   C  BGC C   3      31.089   7.807   6.4450  0.00  0.00     0.000 C
ATOM     42   O  BGC C   3      31.337   8.965   5.5700  0.00  0.00     0.000 O
ATOM     44  HD  BGC C   3      31.027   8.656   4.8230  0.00  0.00     0.000 HD
BRANCH 31 44
ATOM     44  O4  BGC C   4      32.683   9.903  10.2530  0.00  0.00     0.000 O
BRANCH 44 48
ATOM     45  C1  BGC C   4      36.240   9.467  12.2320  0.00  0.00     0.000 C
ATOM     46  C2  BGC C   4      36.299   8.826  10.8090  0.00  0.00     0.000 C
ATOM     47  C3  BGC C   4      35.018   9.370  10.1620  0.00  0.00     0.000 C
ATOM     48  C4  BGC C   4      33.707   9.214  10.9080  0.00  0.00     0.000 C
ATOM     49  C5  BGC C   4      33.902   9.907  12.2660  0.00  0.00     0.000 C
ATOM     50  O5  BGC C   4      34.993   9.384  12.9390  0.00  0.00     0.000 O
ATOM     51   O  BGC C   4      37.457   9.075   9.8260  0.00  0.00     0.000 O
ATOM     53  HD  BGC C   4      37.285   8.746   9.0430  0.00  0.00     0.000 HD
ATOM     53   O  BGC C   4      34.897   8.425   8.9980  0.00  0.00     0.000 O
ATOM     55  HD  BGC C   4      34.725   8.097   8.2160  0.00  0.00     0.000 HD
ATOM     55   C  BGC C   4      32.720   9.680  13.1720  0.00  0.00     0.000 C
ATOM     56   O  BGC C   4      32.380   8.310  13.4150  0.00  0.00     0.000 O
ATOM     58  HD  BGC C   4      32.208   7.981  12.6330  0.00  0.00     0.000 HD
BRANCH 45 58
ATOM     58  O4  BGC C   5      37.191   8.919  13.0960  0.00  0.00     0.000 O
BRANCH 58 62
ATOM     59  C1  BGC C   5      39.149   7.200  14.6970  0.00  0.00     0.000 C
ATOM     60  C2  BGC C   5      38.485   6.309  13.7710  0.00  0.00     0.000 C
ATOM     61  C3  BGC C   5      36.976   6.521  13.6920  0.00  0.00     0.000 C
ATOM     62  C4  BGC C   5      36.661   7.966  14.0500  0.00  0.00     0.000 C
ATOM     63  C5  BGC C   5      37.473   8.311  15.2760  0.00  0.00     0.000 C
ATOM     64  O5  BGC C   5      38.549   7.448  15.6400  0.00  0.00     0.000 O
ATOM     65   O  BGC C   5      35.938   7.319  16.8550  0.00  0.00     0.000 O
ATOM     67  HD  BGC C   5      36.189   8.037  16.4410  0.00  0.00     0.000 HD
ATOM     67   O  BGC C   5      35.938   7.319  16.8550  0.00  0.00     0.000 O
ATOM     69  HD  BGC C   5      36.189   8.037  16.4410  0.00  0.00     0.000 HD
ENDBRANCH 58 62
ENDBRANCH 45 58
ENDBRANCH 44 48
ENDBRANCH 31 44
ENDBRANCH 30 34
ENDBRANCH 17 30
ENDBRANCH 16 20
ENDBRANCH 1 16
TORSDOF 8
ENDMDL
MODEL 42
REMARK VINA RESULT:      -1.2     13.246     23.354
ROOT
ATOM      1  C1  BGC C   1      33.689  19.945  10.0020  0.00  0.00     0.000 C
ATOM      2  C2  BGC C   1      33.201  21.079  10.9010  0.00  0.00     0.000 C
ATOM      3  C3  BGC C   1      34.171  22.252  10.8360  0.00  0.00     0.000 C
ATOM      4  C4  BGC C   1      35.611  21.821  11.0660  0.00  0.00     0.000 C
ATOM      5  C5  BGC C   1      35.932  20.586  10.2290  0.00  0.00     0.000 C
ATOM      6  O5  BGC C   1      34.976  19.579  10.3240  0.00  0.00     0.000 O
ATOM      7   O  BGC C   1      31.930  21.469  10.4380  0.00  0.00     0.000 O
ATOM      9  HD  BGC C   1      32.265  21.634  11.2190  0.00  0.00     0.000 HD
ATOM      9   O  BGC C   1      33.747  23.235  11.7900  0.00  0.00     0.000 O
ATOM     11  HD  BGC C   1      34.081  23.399  12.5720  0.00  0.00     0.000 HD
ATOM     11   O  BGC C   1      36.434  22.921  10.6940  0.00  0.00     0.000 O
ATOM     13  HD  BGC C   1      36.769  23.085  11.4750  0.00  0.00     0.000 HD
ATOM     13   O  BGC C   1      37.196  19.470  12.0450  0.00  0.00     0.000 O
ATOM     15  HD  BGC C   1      37.530  19.635  12.8270  0.00  0.00     0.000 HD
ATOM     15   C  BGC C   1      37.285  20.025  10.7030  0.00  0.00     0.000 C
ENDROOT
BRANCH 1 16
ATOM     16  O4  BGC C   2      32.874  18.817  10.2170  0.00  0.00     0.000 O
BRANCH 16 20
ATOM     17  C1  BGC C   2      31.434  15.672   8.0460  0.00  0.00     0.000 C
ATOM     18  C2  BGC C   2      32.833  15.500   8.6170  0.00  0.00     0.000 C
ATOM     19  C3  BGC C   2      33.112  16.548   9.6850  0.00  0.00     0.000 C
ATOM     20  C4  BGC C   2      32.807  17.905   9.1460  0.00  0.00     0.000 C
ATOM     21  C5  BGC C   2      31.412  17.949   8.5290  0.00  0.00     0.000 C
ATOM     22  O5  BGC C   2      31.271  16.968   7.5460  0.00  0.00     0.000 O
ATOM     23   O  BGC C   2      32.950  14.179   9.1660  0.00  0.00     0.000 O
ATOM     25  HD  BGC C   2      33.391  14.206   9.9110  0.00  0.00     0.000 HD
ATOM     25   O  BGC C   2      34.481  16.476  10.0630  0.00  0.00     0.000 O
ATOM     27  HD  BGC C   2      34.922  16.503  10.8080  0.00  0.00     0.000 HD
ATOM     27   C  BGC C   2      31.015  19.312   7.9260  0.00  0.00     0.000 C
ATOM     28   O  BGC C   2      31.990  19.763   6.9710  0.00  0.00     0.000 O
ATOM     30  HD  BGC C   2      32.431  19.789   7.7160  0.00  0.00     0.000 HD
BRANCH 17 30
ATOM     30  O4  BGC C   3      31.246  14.756   6.9890  0.00  0.00     0.000 O
BRANCH 30 34
ATOM     31  C1  BGC C   3      28.388  12.452   5.2970  0.00  0.00     0.000 C
ATOM     32  C2  BGC C   3      28.403  13.935   4.8560  0.00  0.00     0.000 C
ATOM     33  C3  BGC C   3      29.674  14.602   5.2520  0.00  0.00     0.000 C
ATOM     34  C4  BGC C   3      29.909  14.347   6.7420  0.00  0.00     0.000 C
ATOM     35  C5  BGC C   3      29.760  12.860   7.1530  0.00  0.00     0.000 C
ATOM     36  O5  BGC C   3      28.533  12.352   6.6920  0.00  0.00     0.000 O
ATOM     37   O  BGC C   3      28.204  14.231   3.4860  0.00  0.00     0.000 O
ATOM     39  HD  BGC C   3      28.629  14.435   4.2120  0.00  0.00     0.000 HD
ATOM     39   O  BGC C   3      29.603  16.031   4.9670  0.00  0.00     0.000 O
ATOM     41  HD  BGC C   3      30.029  16.235   5.6940  0.00  0.00     0.000 HD
ATOM     41   C  BGC C   3      29.810  12.591   8.6750  0.00  0.00     0.000 C
ATOM     42   O  BGC C   3      28.712  13.188   9.4540  0.00  0.00     0.000 O
ATOM     44  HD  BGC C   3      29.138  13.393  10.1800  0.00  0.00     0.000 HD
BRANCH 31 44
ATOM     44  O4  BGC C   4      27.202  11.833   4.9250  0.00  0.00     0.000 O
BRANCH 44 48
ATOM     45  C1  BGC C   4      25.547   8.378   3.4830  0.00  0.00     0.000 C
ATOM     46  C2  BGC C   4      26.001   8.214   4.9680  0.00  0.00     0.000 C
ATOM     47  C3  BGC C   4      26.283   9.666   5.3760  0.00  0.00     0.000 C
ATOM     48  C4  BGC C   4      27.186  10.505   4.4940  0.00  0.00     0.000 C
ATOM     49  C5  BGC C   4      26.541  10.505   3.0990  0.00  0.00     0.000 C
ATOM     50  O5  BGC C   4      26.352   9.213   2.6370  0.00  0.00     0.000 O
ATOM     51   O  BGC C   4      25.106   7.591   6.0540  0.00  0.00     0.000 O
ATOM     53  HD  BGC C   4      25.455   7.679   6.8420  0.00  0.00     0.000 HD
ATOM     53   O  BGC C   4      27.097   9.429   6.6190  0.00  0.00     0.000 O
ATOM     55  HD  BGC C   4      27.445   9.517   7.4070  0.00  0.00     0.000 HD
ATOM     55   C  BGC C   4      27.431  11.172   2.0820  0.00  0.00     0.000 C
ATOM     56   O  BGC C   4      28.751  10.628   1.9630  0.00  0.00     0.000 O
ATOM     58  HD  BGC C   4      29.100  10.716   2.7500  0.00  0.00     0.000 HD
BRANCH 45 58
ATOM     58  O4  BGC C   5      25.463   7.152   2.8180  0.00  0.00     0.000 O
BRANCH 58 62
ATOM     59  C1  BGC C   5      25.253   5.036   0.6210  0.00  0.00     0.000 C
ATOM     60  C2  BGC C   5      24.993   6.310  -0.0120  0.00  0.00     0.000 C
ATOM     61  C3  BGC C   5      24.047   7.207   0.7820  0.00  0.00     0.000 C
ATOM     62  C4  BGC C   5      24.160   6.857   2.2590  0.00  0.00     0.000 C
ATOM     63  C5  BGC C   5      24.141   5.350   2.3650  0.00  0.00     0.000 C
ATOM     64  O5  BGC C   5      24.362   4.585   1.1820  0.00  0.00     0.000 O
ATOM     65   O  BGC C   5      21.737   5.141   2.2370  0.00  0.00     0.000 O
ATOM     67  HD  BGC C   5      22.434   5.206   2.7480  0.00  0.00     0.000 HD
ATOM     67   O  BGC C   5      21.737   5.141   2.2370  0.00  0.00     0.000 O
ATOM     69  HD  BGC C   5      22.434   5.206   2.7480  0.00  0.00     0.000 HD
ENDBRANCH 58 62
ENDBRANCH 45 58
ENDBRANCH 44 48
ENDBRANCH 31 44
ENDBRANCH 30 34
ENDBRANCH 17 30
ENDBRANCH 16 20
ENDBRANCH 1 16
TORSDOF 8
ENDMDL
MODEL 43
REMARK VINA RESULT:      -1.1     14.642     20.277
ROOT
ATOM      1  C1  BGC C   1      12.843  12.275   1.7780  0.00  0.00     0.000 C
ATOM      2  C2  BGC C   1      14.274  12.349   1.2470  0.00  0.00     0.000 C
ATOM      3  C3  BGC C   1      14.568  11.140   0.3670  0.00  0.00     0.000 C
ATOM      4  C4  BGC C   1      14.199   9.831   1.0460  0.00  0.00     0.000 C
ATOM      5  C5  BGC C   1      12.811   9.934   1.6720  0.00  0.00     0.000 C
ATOM      6  O5  BGC C   1      12.621  11.085   2.4310  0.00  0.00     0.000 O
ATOM      7   O  BGC C   1      14.387  13.537   0.4990  0.00  0.00     0.000 O
ATOM      9  HD  BGC C   1      15.040  13.071   0.8260  0.00  0.00     0.000 HD
ATOM      9   O  BGC C   1      15.953  11.182  -0.0000  0.00  0.00     0.000 O
ATOM     11  HD  BGC C   1      16.606  10.717   0.3270  0.00  0.00     0.000 HD
ATOM     11   O  BGC C   1      14.235   8.822   0.0430  0.00  0.00     0.000 O
ATOM     13  HD  BGC C   1      14.888   8.357   0.3700  0.00  0.00     0.000 HD
ATOM     13   O  BGC C   1      13.468   8.750   3.7470  0.00  0.00     0.000 O
ATOM     15  HD  BGC C   1      14.121   8.284   4.0740  0.00  0.00     0.000 HD
ATOM     15   C  BGC C   1      12.602   8.707   2.5780  0.00  0.00     0.000 C
ENDROOT
BRANCH 1 16
ATOM     16  O4  BGC C   2      12.659  13.304   2.7210  0.00  0.00     0.000 O
BRANCH 16 20
ATOM     17  C1  BGC C   2       9.637  15.727   4.0130  0.00  0.00     0.000 C
ATOM     18  C2  BGC C   2       9.674  14.332   4.6170  0.00  0.00     0.000 C
ATOM     19  C3  BGC C   2      11.017  13.665   4.3520  0.00  0.00     0.000 C
ATOM     20  C4  BGC C   2      11.331  13.736   2.8950  0.00  0.00     0.000 C
ATOM     21  C5  BGC C   2      11.189  15.163   2.3730  0.00  0.00     0.000 C
ATOM     22  O5  BGC C   2       9.917  15.669   2.6440  0.00  0.00     0.000 O
ATOM     23   O  BGC C   2       9.434  14.432   6.0290  0.00  0.00     0.000 O
ATOM     25  HD  BGC C   2       9.954  13.888   6.4580  0.00  0.00     0.000 HD
ATOM     25   O  BGC C   2      10.953  12.305   4.7650  0.00  0.00     0.000 O
ATOM     27  HD  BGC C   2      11.473  11.762   5.1940  0.00  0.00     0.000 HD
ATOM     27   C  BGC C   2      11.477  15.331   0.8670  0.00  0.00     0.000 C
ATOM     28   O  BGC C   2      10.672  14.438   0.0800  0.00  0.00     0.000 O
ATOM     30  HD  BGC C   2      11.192  13.894   0.5090  0.00  0.00     0.000 HD
BRANCH 17 30
ATOM     30  O4  BGC C   3       8.347  16.274   4.1850  0.00  0.00     0.000 O
BRANCH 30 34
ATOM     31  C1  BGC C   3       6.514  19.792   4.9630  0.00  0.00     0.000 C
ATOM     32  C2  BGC C   3       6.861  19.530   3.4780  0.00  0.00     0.000 C
ATOM     33  C3  BGC C   3       7.204  18.099   3.2480  0.00  0.00     0.000 C
ATOM     34  C4  BGC C   3       8.271  17.689   4.2660  0.00  0.00     0.000 C
ATOM     35  C5  BGC C   3       7.930  18.087   5.7250  0.00  0.00     0.000 C
ATOM     36  O5  BGC C   3       7.599  19.452   5.7900  0.00  0.00     0.000 O
ATOM     37   O  BGC C   3       5.906  19.877   2.4930  0.00  0.00     0.000 O
ATOM     39  HD  BGC C   3       6.509  19.307   2.7420  0.00  0.00     0.000 HD
ATOM     39   O  BGC C   3       7.677  17.906   1.8830  0.00  0.00     0.000 O
ATOM     41  HD  BGC C   3       8.280  17.337   2.1320  0.00  0.00     0.000 HD
ATOM     41   C  BGC C   3       9.062  17.854   6.7510  0.00  0.00     0.000 C
ATOM     42   O  BGC C   3      10.277  18.660   6.5390  0.00  0.00     0.000 O
ATOM     44  HD  BGC C   3      10.879  18.090   6.7880  0.00  0.00     0.000 HD
BRANCH 31 44
ATOM     44  O4  BGC C   4       6.194  21.127   5.1710  0.00  0.00     0.000 O
BRANCH 44 48
ATOM     45  C1  BGC C   4       3.728  23.695   7.1930  0.00  0.00     0.000 C
ATOM     46  C2  BGC C   4       4.764  23.026   8.1530  0.00  0.00     0.000 C
ATOM     47  C3  BGC C   4       5.743  22.380   7.1640  0.00  0.00     0.000 C
ATOM     48  C4  BGC C   4       5.186  21.495   6.0670  0.00  0.00     0.000 C
ATOM     49  C5  BGC C   4       4.195  22.364   5.2760  0.00  0.00     0.000 C
ATOM     50  O5  BGC C   4       3.226  22.897   6.1100  0.00  0.00     0.000 O
ATOM     51   O  BGC C   4       5.594  23.823   9.1750  0.00  0.00     0.000 O
ATOM     53  HD  BGC C   4       6.201  23.329   9.5450  0.00  0.00     0.000 HD
ATOM     53   O  BGC C   4       6.448  21.426   8.0880  0.00  0.00     0.000 O
ATOM     55  HD  BGC C   4       7.055  20.932   8.4580  0.00  0.00     0.000 HD
ATOM     55   C  BGC C   4       3.446  21.551   4.2530  0.00  0.00     0.000 C
ATOM     56   O  BGC C   4       2.736  20.416   4.7630  0.00  0.00     0.000 O
ATOM     58  HD  BGC C   4       3.343  19.922   5.1330  0.00  0.00     0.000 HD
BRANCH 45 58
ATOM     58  O4  BGC C   5       2.596  24.148   7.8730  0.00  0.00     0.000 O
BRANCH 58 62
ATOM     59  C1  BGC C   5      -0.006  25.565   7.1140  0.00  0.00     0.000 C
ATOM     60  C2  BGC C   5       0.971  25.942   6.1160  0.00  0.00     0.000 C
ATOM     61  C3  BGC C   5       2.330  26.318   6.7000  0.00  0.00     0.000 C
ATOM     62  C4  BGC C   5       2.518  25.587   8.0220  0.00  0.00     0.000 C
ATOM     63  C5  BGC C   5       1.227  25.722   8.7970  0.00  0.00     0.000 C
ATOM     64  O5  BGC C   5       0.060  26.148   8.0970  0.00  0.00     0.000 O
ATOM     65   O  BGC C   5       1.706  27.928   9.6570  0.00  0.00     0.000 O
ATOM     67  HD  BGC C   5       1.741  27.074   9.7920  0.00  0.00     0.000 HD
ATOM     67   O  BGC C   5       1.706  27.928   9.6570  0.00  0.00     0.000 O
ATOM     69  HD  BGC C   5       1.741  27.074   9.7920  0.00  0.00     0.000 HD
ENDBRANCH 58 62
ENDBRANCH 45 58
ENDBRANCH 44 48
ENDBRANCH 31 44
ENDBRANCH 30 34
ENDBRANCH 17 30
ENDBRANCH 16 20
ENDBRANCH 1 16
TORSDOF 8
ENDMDL
MODEL 44
REMARK VINA RESULT:      -1.0      9.822     17.706
ROOT
ATOM      1  C1  BGC C   1      22.777   6.231   3.4120  0.00  0.00     0.000 C
ATOM      2  C2  BGC C   1      21.749   6.870   2.4790  0.00  0.00     0.000 C
ATOM      3  C3  BGC C   1      20.663   7.562   3.2940  0.00  0.00     0.000 C
ATOM      4  C4  BGC C   1      20.084   6.655   4.3680  0.00  0.00     0.000 C
ATOM      5  C5  BGC C   1      21.206   5.955   5.1290  0.00  0.00     0.000 C
ATOM      6  O5  BGC C   1      22.169   5.379   4.3060  0.00  0.00     0.000 O
ATOM      7   O  BGC C   1      22.429   7.805   1.6770  0.00  0.00     0.000 O
ATOM      9  HD  BGC C   1      21.654   7.456   1.5130  0.00  0.00     0.000 HD
ATOM      9   O  BGC C   1      19.656   8.031   2.3880  0.00  0.00     0.000 O
ATOM     11  HD  BGC C   1      18.881   7.682   2.2240  0.00  0.00     0.000 HD
ATOM     11   O  BGC C   1      19.316   7.483   5.2350  0.00  0.00     0.000 O
ATOM     13  HD  BGC C   1      18.540   7.133   5.0710  0.00  0.00     0.000 HD
ATOM     13   O  BGC C   1      20.040   3.770   5.1850  0.00  0.00     0.000 O
ATOM     15  HD  BGC C   1      19.264   3.420   5.0220  0.00  0.00     0.000 HD
ATOM     15   C  BGC C   1      20.578   4.850   5.9980  0.00  0.00     0.000 C
ENDROOT
BRANCH 1 16
ATOM     16  O4  BGC C   2      23.663   5.455   2.6400  0.00  0.00     0.000 O
BRANCH 16 20
ATOM     17  C1  BGC C   2      27.644   4.543   2.6170  0.00  0.00     0.000 C
ATOM     18  C2  BGC C   2      26.773   3.697   3.5320  0.00  0.00     0.000 C
ATOM     19  C3  BGC C   2      25.301   3.873   3.1910  0.00  0.00     0.000 C
ATOM     20  C4  BGC C   2      24.965   5.326   3.1600  0.00  0.00     0.000 C
ATOM     21  C5  BGC C   2      25.942   6.095   2.2760  0.00  0.00     0.000 C
ATOM     22  O5  BGC C   2      27.259   5.887   2.6890  0.00  0.00     0.000 O
ATOM     23   O  BGC C   2      27.159   2.321   3.3960  0.00  0.00     0.000 O
ATOM     25  HD  BGC C   2      26.457   1.814   3.3930  0.00  0.00     0.000 HD
ATOM     25   O  BGC C   2      24.511   3.218   4.1770  0.00  0.00     0.000 O
ATOM     27  HD  BGC C   2      23.809   2.711   4.1740  0.00  0.00     0.000 HD
ATOM     27   C  BGC C   2      25.685   7.614   2.1980  0.00  0.00     0.000 C
ATOM     28   O  BGC C   2      25.639   8.202   3.5080  0.00  0.00     0.000 O
ATOM     30  HD  BGC C   2      24.937   7.696   3.5050  0.00  0.00     0.000 HD
BRANCH 17 30
ATOM     30  O4  BGC C   3      28.990   4.438   3.0260  0.00  0.00     0.000 O
BRANCH 30 34
ATOM     31  C1  BGC C   3      32.739   4.137   1.5440  0.00  0.00     0.000 C
ATOM     32  C2  BGC C   3      31.959   5.413   1.1440  0.00  0.00     0.000 C
ATOM     33  C3  BGC C   3      30.755   5.599   1.9990  0.00  0.00     0.000 C
ATOM     34  C4  BGC C   3      29.952   4.296   1.9920  0.00  0.00     0.000 C
ATOM     35  C5  BGC C   3      30.806   3.033   2.2760  0.00  0.00     0.000 C
ATOM     36  O5  BGC C   3      31.920   3.001   1.4200  0.00  0.00     0.000 O
ATOM     37   O  BGC C   3      32.648   6.649   1.1460  0.00  0.00     0.000 O
ATOM     39  HD  BGC C   3      31.904   6.239   1.3150  0.00  0.00     0.000 HD
ATOM     39   O  BGC C   3      29.954   6.713   1.5060  0.00  0.00     0.000 O
ATOM     41  HD  BGC C   3      29.210   6.303   1.6760  0.00  0.00     0.000 HD
ATOM     41   C  BGC C   3      30.066   1.687   2.0970  0.00  0.00     0.000 C
ATOM     42   O  BGC C   3      29.619   1.396   0.7240  0.00  0.00     0.000 O
ATOM     44  HD  BGC C   3      28.875   0.985   0.8930  0.00  0.00     0.000 HD
BRANCH 31 44
ATOM     44  O4  BGC C   4      33.862   3.969   0.7450  0.00  0.00     0.000 O
BRANCH 44 48
ATOM     45  C1  BGC C   4      37.794   2.831   0.7070  0.00  0.00     0.000 C
ATOM     46  C2  BGC C   4      36.850   1.606   0.9260  0.00  0.00     0.000 C
ATOM     47  C3  BGC C   4      35.475   2.202   0.5970  0.00  0.00     0.000 C
ATOM     48  C4  BGC C   4      35.061   3.491   1.2790  0.00  0.00     0.000 C
ATOM     49  C5  BGC C   4      36.140   4.527   0.9270  0.00  0.00     0.000 C
ATOM     50  O5  BGC C   4      37.399   4.080   1.2950  0.00  0.00     0.000 O
ATOM     51   O  BGC C   4      36.987   0.291   0.1390  0.00  0.00     0.000 O
ATOM     53  HD  BGC C   4      36.321  -0.242   0.2920  0.00  0.00     0.000 HD
ATOM     53   O  BGC C   4      34.588   1.155   1.2130  0.00  0.00     0.000 O
ATOM     55  HD  BGC C   4      33.922   0.623   1.3670  0.00  0.00     0.000 HD
ATOM     55   C  BGC C   4      35.933   5.814   1.6830  0.00  0.00     0.000 C
ATOM     56   O  BGC C   4      35.878   5.694   3.1090  0.00  0.00     0.000 O
ATOM     58  HD  BGC C   4      35.213   5.162   3.2620  0.00  0.00     0.000 HD
BRANCH 45 58
ATOM     58  O4  BGC C   5      39.086   2.592   1.1820  0.00  0.00     0.000 O
BRANCH 58 62
ATOM     59  C1  BGC C   5      41.630   1.768   2.6660  0.00  0.00     0.000 C
ATOM     60  C2  BGC C   5      40.521   1.252   3.4380  0.00  0.00     0.000 C
ATOM     61  C3  BGC C   5      39.383   2.253   3.6220  0.00  0.00     0.000 C
ATOM     62  C4  BGC C   5      39.388   3.225   2.4510  0.00  0.00     0.000 C
ATOM     63  C5  BGC C   5      40.821   3.646   2.2230  0.00  0.00     0.000 C
ATOM     64  O5  BGC C   5      41.857   2.878   2.8320  0.00  0.00     0.000 O
ATOM     65   O  BGC C   5      40.841   5.333   3.9510  0.00  0.00     0.000 O
ATOM     67  HD  BGC C   5      40.721   5.156   3.1120  0.00  0.00     0.000 HD
ATOM     67   O  BGC C   5      40.841   5.333   3.9510  0.00  0.00     0.000 O
ATOM     69  HD  BGC C   5      40.721   5.156   3.1120  0.00  0.00     0.000 HD
ENDBRANCH 58 62
ENDBRANCH 45 58
ENDBRANCH 44 48
ENDBRANCH 31 44
ENDBRANCH 30 34
ENDBRANCH 17 30
ENDBRANCH 16 20
ENDBRANCH 1 16
TORSDOF 8
ENDMDL
MODEL 45
REMARK VINA RESULT:      -1.0     12.655     18.232
ROOT
ATOM      1  C1  BGC C   1      20.465  20.986  14.9280  0.00  0.00     0.000 C
ATOM      2  C2  BGC C   1      21.280  22.195  15.3840  0.00  0.00     0.000 C
ATOM      3  C3  BGC C   1      20.921  22.555  16.8210  0.00  0.00     0.000 C
ATOM      4  C4  BGC C   1      19.420  22.675  17.0250  0.00  0.00     0.000 C
ATOM      5  C5  BGC C   1      18.703  21.486  16.3900  0.00  0.00     0.000 C
ATOM      6  O5  BGC C   1      19.117  21.210  15.0900  0.00  0.00     0.000 O
ATOM      7   O  BGC C   1      22.641  21.847  15.2930  0.00  0.00     0.000 O
ATOM      9  HD  BGC C   1      22.318  22.649  15.3360  0.00  0.00     0.000 HD
ATOM      9   O  BGC C   1      21.607  23.767  17.1610  0.00  0.00     0.000 O
ATOM     11  HD  BGC C   1      21.284  24.569  17.2040  0.00  0.00     0.000 HD
ATOM     11   O  BGC C   1      19.197  22.716  18.4300  0.00  0.00     0.000 O
ATOM     13  HD  BGC C   1      18.874  23.518  18.4730  0.00  0.00     0.000 HD
ATOM     13   O  BGC C   1      16.876  22.868  15.4470  0.00  0.00     0.000 O
ATOM     15  HD  BGC C   1      16.553  23.670  15.4900  0.00  0.00     0.000 HD
ATOM     15   C  BGC C   1      17.194  21.790  16.3710  0.00  0.00     0.000 C
ENDROOT
BRANCH 1 16
ATOM     16  O4  BGC C   2      20.687  20.787  13.5510  0.00  0.00     0.000 O
BRANCH 16 20
ATOM     17  C1  BGC C   2      20.850  17.660  10.9300  0.00  0.00     0.000 C
ATOM     18  C2  BGC C   2      19.459  18.181  11.2580  0.00  0.00     0.000 C
ATOM     19  C3  BGC C   2      19.538  19.543  11.9330  0.00  0.00     0.000 C
ATOM     20  C4  BGC C   2      20.480  19.474  13.0880  0.00  0.00     0.000 C
ATOM     21  C5  BGC C   2      21.817  18.868  12.6690  0.00  0.00     0.000 C
ATOM     22  O5  BGC C   2      21.634  17.612  12.0870  0.00  0.00     0.000 O
ATOM     23   O  BGC C   2      18.698  18.266  10.0440  0.00  0.00     0.000 O
ATOM     25  HD  BGC C   2      18.222  18.990  10.0420  0.00  0.00     0.000 HD
ATOM     25   O  BGC C   2      18.243  19.914  12.3900  0.00  0.00     0.000 O
ATOM     27  HD  BGC C   2      17.767  20.637  12.3880  0.00  0.00     0.000 HD
ATOM     27   C  BGC C   2      22.852  18.738  13.8060  0.00  0.00     0.000 C
ATOM     28   O  BGC C   2      22.311  18.014  14.9220  0.00  0.00     0.000 O
ATOM     30  HD  BGC C   2      21.835  18.737  14.9200  0.00  0.00     0.000 HD
BRANCH 17 30
ATOM     30  O4  BGC C   3      20.746  16.355  10.4030  0.00  0.00     0.000 O
BRANCH 30 34
ATOM     31  C1  BGC C   3      22.443  13.937   7.6440  0.00  0.00     0.000 C
ATOM     32  C2  BGC C   3      23.169  14.012   9.0080  0.00  0.00     0.000 C
ATOM     33  C3  BGC C   3      22.302  14.633  10.0470  0.00  0.00     0.000 C
ATOM     34  C4  BGC C   3      21.768  15.959   9.5010  0.00  0.00     0.000 C
ATOM     35  C5  BGC C   3      21.162  15.851   8.0780  0.00  0.00     0.000 C
ATOM     36  O5  BGC C   3      22.073  15.223   7.2110  0.00  0.00     0.000 O
ATOM     37   O  BGC C   3      23.673  12.814   9.5680  0.00  0.00     0.000 O
ATOM     39  HD  BGC C   3      23.289  13.575   9.7220  0.00  0.00     0.000 HD
ATOM     39   O  BGC C   3      23.057  14.836  11.2780  0.00  0.00     0.000 O
ATOM     41  HD  BGC C   3      22.673  15.597  11.4310  0.00  0.00     0.000 HD
ATOM     41   C  BGC C   3      20.781  17.199   7.4230  0.00  0.00     0.000 C
ATOM     42   O  BGC C   3      21.908  18.109   7.1580  0.00  0.00     0.000 O
ATOM     44  HD  BGC C   3      21.525  18.870   7.3120  0.00  0.00     0.000 HD
BRANCH 31 44
ATOM     44  O4  BGC C   4      23.254  13.356   6.6780  0.00  0.00     0.000 O
BRANCH 44 48
ATOM     45  C1  BGC C   4      23.336  10.811   3.4730  0.00  0.00     0.000 C
ATOM     46  C2  BGC C   4      22.622  12.153   3.1150  0.00  0.00     0.000 C
ATOM     47  C3  BGC C   4      22.981  13.035   4.3190  0.00  0.00     0.000 C
ATOM     48  C4  BGC C   4      22.724  12.497   5.7130  0.00  0.00     0.000 C
ATOM     49  C5  BGC C   4      23.515  11.183   5.8170  0.00  0.00     0.000 C
ATOM     50  O5  BGC C   4      23.158  10.306   4.8050  0.00  0.00     0.000 O
ATOM     51   O  BGC C   4      22.938  12.956   1.8400  0.00  0.00     0.000 O
ATOM     53  HD  BGC C   4      22.546  13.728   1.8470  0.00  0.00     0.000 HD
ATOM     53   O  BGC C   4      21.960  14.126   4.1490  0.00  0.00     0.000 O
ATOM     55  HD  BGC C   4      21.568  14.898   4.1550  0.00  0.00     0.000 HD
ATOM     55   C  BGC C   4      23.212  10.460   7.1040  0.00  0.00     0.000 C
ATOM     56   O  BGC C   4      21.830  10.169   7.3410  0.00  0.00     0.000 O
ATOM     58  HD  BGC C   4      21.438  10.941   7.3470  0.00  0.00     0.000 HD
BRANCH 45 58
ATOM     58  O4  BGC C   5      22.951   9.767   2.6290  0.00  0.00     0.000 O
BRANCH 58 62
ATOM     59  C1  BGC C   5      21.725   7.296   1.3080  0.00  0.00     0.000 C
ATOM     60  C2  BGC C   5      21.866   8.289   0.2660  0.00  0.00     0.000 C
ATOM     61  C3  BGC C   5      21.412   9.685   0.6840  0.00  0.00     0.000 C
ATOM     62  C4  BGC C   5      21.571   9.824   2.1910  0.00  0.00     0.000 C
ATOM     63  C5  BGC C   5      21.023   8.563   2.8180  0.00  0.00     0.000 C
ATOM     64  O5  BGC C   5      20.808   7.429   1.9790  0.00  0.00     0.000 O
ATOM     65   O  BGC C   5      18.710   9.254   2.7410  0.00  0.00     0.000 O
ATOM     67  HD  BGC C   5      19.439   9.213   3.2060  0.00  0.00     0.000 HD
ATOM     67   O  BGC C   5      18.710   9.254   2.7410  0.00  0.00     0.000 O
ATOM     69  HD  BGC C   5      19.439   9.213   3.2060  0.00  0.00     0.000 HD
ENDBRANCH 58 62
ENDBRANCH 45 58
ENDBRANCH 44 48
ENDBRANCH 31 44
ENDBRANCH 30 34
ENDBRANCH 17 30
ENDBRANCH 16 20
ENDBRANCH 1 16
TORSDOF 8
ENDMDL
MODEL 46
REMARK VINA RESULT:      -1.0     13.074     25.356
ROOT
ATOM      1  C1  BGC C   1      41.625   7.461   7.1860  0.00  0.00     0.000 C
ATOM      2  C2  BGC C   1      42.672   6.757   8.0490  0.00  0.00     0.000 C
ATOM      3  C3  BGC C   1      43.613   7.784   8.6680  0.00  0.00     0.000 C
ATOM      4  C4  BGC C   1      44.171   8.748   7.6350  0.00  0.00     0.000 C
ATOM      5  C5  BGC C   1      43.053   9.264   6.7340  0.00  0.00     0.000 C
ATOM      6  O5  BGC C   1      42.223   8.261   6.2400  0.00  0.00     0.000 O
ATOM      7   O  BGC C   1      41.985   6.053   9.0560  0.00  0.00     0.000 O
ATOM      9  HD  BGC C   1      42.800   5.916   8.7980  0.00  0.00     0.000 HD
ATOM      9   O  BGC C   1      44.651   7.076   9.3580  0.00  0.00     0.000 O
ATOM     11  HD  BGC C   1      45.466   6.939   9.1000  0.00  0.00     0.000 HD
ATOM     11   O  BGC C   1      44.781   9.814   8.3550  0.00  0.00     0.000 O
ATOM     13  HD  BGC C   1      45.596   9.677   8.0970  0.00  0.00     0.000 HD
ATOM     13   O  BGC C   1      44.400   9.082   4.6630  0.00  0.00     0.000 O
ATOM     15  HD  BGC C   1      45.215   8.945   4.4050  0.00  0.00     0.000 HD
ATOM     15   C  BGC C   1      43.696  10.000   5.5450  0.00  0.00     0.000 C
ENDROOT
BRANCH 1 16
ATOM     16  O4  BGC C   2      40.885   6.485   6.4910  0.00  0.00     0.000 O
BRANCH 16 20
ATOM     17  C1  BGC C   2      37.070   5.972   5.1270  0.00  0.00     0.000 C
ATOM     18  C2  BGC C   2      37.982   6.814   4.2490  0.00  0.00     0.000 C
ATOM     19  C3  BGC C   2      39.438   6.634   4.6550  0.00  0.00     0.000 C
ATOM     20  C4  BGC C   2      39.580   6.862   6.1220  0.00  0.00     0.000 C
ATOM     21  C5  BGC C   2      38.570   6.030   6.9060  0.00  0.00     0.000 C
ATOM     22  O5  BGC C   2      37.268   6.289   6.4750  0.00  0.00     0.000 O
ATOM     23   O  BGC C   2      37.792   6.429   2.8800  0.00  0.00     0.000 O
ATOM     25  HD  BGC C   2      38.553   6.407   2.4680  0.00  0.00     0.000 HD
ATOM     25   O  BGC C   2      40.240   7.569   3.9430  0.00  0.00     0.000 O
ATOM     27  HD  BGC C   2      41.002   7.547   3.5310  0.00  0.00     0.000 HD
ATOM     27   C  BGC C   2      38.629   6.215   8.4370  0.00  0.00     0.000 C
ATOM     28   O  BGC C   2      38.510   7.601   8.7980  0.00  0.00     0.000 O
ATOM     30  HD  BGC C   2      39.272   7.579   8.3870  0.00  0.00     0.000 HD
BRANCH 17 30
ATOM     30  O4  BGC C   3      35.725   6.242   4.7950  0.00  0.00     0.000 O
BRANCH 30 34
ATOM     31  C1  BGC C   3      32.174   4.359   4.3590  0.00  0.00     0.000 C
ATOM     32  C2  BGC C   3      32.517   4.821   5.7960  0.00  0.00     0.000 C
ATOM     33  C3  BGC C   3      33.649   5.789   5.7950  0.00  0.00     0.000 C
ATOM     34  C4  BGC C   3      34.804   5.180   4.9960  0.00  0.00     0.000 C
ATOM     35  C5  BGC C   3      34.381   4.619   3.6140  0.00  0.00     0.000 C
ATOM     36  O5  BGC C   3      33.289   3.746   3.7600  0.00  0.00     0.000 O
ATOM     37   O  BGC C   3      31.491   5.404   6.5770  0.00  0.00     0.000 O
ATOM     39  HD  BGC C   3      32.330   5.419   6.3640  0.00  0.00     0.000 HD
ATOM     39   O  BGC C   3      34.056   6.090   7.1620  0.00  0.00     0.000 O
ATOM     41  HD  BGC C   3      34.895   6.104   6.9490  0.00  0.00     0.000 HD
ATOM     41   C  BGC C   3      35.480   3.836   2.8590  0.00  0.00     0.000 C
ATOM     42   O  BGC C   3      35.931   2.598   3.5160  0.00  0.00     0.000 O
ATOM     44  HD  BGC C   3      36.770   2.612   3.3030  0.00  0.00     0.000 HD
BRANCH 31 44
ATOM     44  O4  BGC C   4      31.117   3.459   4.3640  0.00  0.00     0.000 O
BRANCH 44 48
ATOM     45  C1  BGC C   4      27.764   2.233   2.3610  0.00  0.00     0.000 C
ATOM     46  C2  BGC C   4      29.052   2.010   1.5050  0.00  0.00     0.000 C
ATOM     47  C3  BGC C   4      30.163   2.233   2.5390  0.00  0.00     0.000 C
ATOM     48  C4  BGC C   4      30.132   3.497   3.3750  0.00  0.00     0.000 C
ATOM     49  C5  BGC C   4      28.779   3.495   4.1040  0.00  0.00     0.000 C
ATOM     50  O5  BGC C   4      27.730   3.393   3.2060  0.00  0.00     0.000 O
ATOM     51   O  BGC C   4      29.354   0.688   0.7760  0.00  0.00     0.000 O
ATOM     53  HD  BGC C   4      30.155   0.684   0.4450  0.00  0.00     0.000 HD
ATOM     53   O  BGC C   4      31.335   2.428   1.6160  0.00  0.00     0.000 O
ATOM     55  HD  BGC C   4      32.136   2.424   1.2860  0.00  0.00     0.000 HD
ATOM     55   C  BGC C   4      28.553   4.787   4.8460  0.00  0.00     0.000 C
ATOM     56   O  BGC C   4      28.631   5.978   4.0540  0.00  0.00     0.000 O
ATOM     58  HD  BGC C   4      29.431   5.973   3.7240  0.00  0.00     0.000 HD
BRANCH 45 58
ATOM     58  O4  BGC C   5      26.615   2.317   1.5720  0.00  0.00     0.000 O
BRANCH 58 62
ATOM     59  C1  BGC C   5      24.291   0.684   0.4380  0.00  0.00     0.000 C
ATOM     60  C2  BGC C   5      23.911   2.074   0.3170  0.00  0.00     0.000 C
ATOM     61  C3  BGC C   5      24.203   2.901   1.5670  0.00  0.00     0.000 C
ATOM     62  C4  BGC C   5      25.370   2.270   2.3130  0.00  0.00     0.000 C
ATOM     63  C5  BGC C   5      25.123   0.780   2.3560  0.00  0.00     0.000 C
ATOM     64  O5  BGC C   5      24.140   0.232   1.4800  0.00  0.00     0.000 O
ATOM     65   O  BGC C   5      23.622   0.852   4.2470  0.00  0.00     0.000 O
ATOM     67  HD  BGC C   5      24.436   0.746   3.9710  0.00  0.00     0.000 HD
ATOM     67   O  BGC C   5      23.622   0.852   4.2470  0.00  0.00     0.000 O
ATOM     69  HD  BGC C   5      24.436   0.746   3.9710  0.00  0.00     0.000 HD
ENDBRANCH 58 62
ENDBRANCH 45 58
ENDBRANCH 44 48
ENDBRANCH 31 44
ENDBRANCH 30 34
ENDBRANCH 17 30
ENDBRANCH 16 20
ENDBRANCH 1 16
TORSDOF 8
ENDMDL
MODEL 47
REMARK VINA RESULT:      -1.0     10.375     22.570
ROOT
ATOM      1  C1  BGC C   1      37.295  10.183   8.4030  0.00  0.00     0.000 C
ATOM      2  C2  BGC C   1      38.298  11.333   8.4920  0.00  0.00     0.000 C
ATOM      3  C3  BGC C   1      39.709  10.783   8.6590  0.00  0.00     0.000 C
ATOM      4  C4  BGC C   1      39.800   9.761   9.7790  0.00  0.00     0.000 C
ATOM      5  C5  BGC C   1      38.656   8.757   9.6720  0.00  0.00     0.000 C
ATOM      6  O5  BGC C   1      37.407   9.345   9.4900  0.00  0.00     0.000 O
ATOM      7   O  BGC C   1      38.198  12.073   7.2990  0.00  0.00     0.000 O
ATOM      9  HD  BGC C   1      38.546  12.344   8.0450  0.00  0.00     0.000 HD
ATOM      9   O  BGC C   1      40.596  11.891   8.8690  0.00  0.00     0.000 O
ATOM     11  HD  BGC C   1      40.944  12.161   9.6150  0.00  0.00     0.000 HD
ATOM     11   O  BGC C   1      41.062   9.115   9.6460  0.00  0.00     0.000 O
ATOM     13  HD  BGC C   1      41.410   9.386  10.3910  0.00  0.00     0.000 HD
ATOM     13   O  BGC C   1      38.217   8.733  12.1100  0.00  0.00     0.000 O
ATOM     15  HD  BGC C   1      38.565   9.004  12.8560  0.00  0.00     0.000 HD
ATOM     15   C  BGC C   1      38.623   7.928  10.9690  0.00  0.00     0.000 C
ENDROOT
BRANCH 1 16
ATOM     16  O4  BGC C   2      35.993  10.717   8.4280  0.00  0.00     0.000 O
BRANCH 16 20
ATOM     17  C1  BGC C   2      32.324   9.830   6.8710  0.00  0.00     0.000 C
ATOM     18  C2  BGC C   2      32.706   9.083   8.1380  0.00  0.00     0.000 C
ATOM     19  C3  BGC C   2      33.898   9.743   8.8160  0.00  0.00     0.000 C
ATOM     20  C4  BGC C   2      35.000   9.922   7.8260  0.00  0.00     0.000 C
ATOM     21  C5  BGC C   2      34.494  10.612   6.5620  0.00  0.00     0.000 C
ATOM     22  O5  BGC C   2      33.421   9.913   6.0070  0.00  0.00     0.000 O
ATOM     23   O  BGC C   2      31.575   9.060   9.0220  0.00  0.00     0.000 O
ATOM     25  HD  BGC C   2      31.834   9.189   9.8390  0.00  0.00     0.000 HD
ATOM     25   O  BGC C   2      34.343   8.919   9.8870  0.00  0.00     0.000 O
ATOM     27  HD  BGC C   2      34.601   9.048  10.7030  0.00  0.00     0.000 HD
ATOM     27   C  BGC C   2      35.563  10.823   5.4700  0.00  0.00     0.000 C
ATOM     28   O  BGC C   2      36.210   9.586   5.1290  0.00  0.00     0.000 O
ATOM     30  HD  BGC C   2      36.469   9.715   5.9460  0.00  0.00     0.000 HD
BRANCH 17 30
ATOM     30  O4  BGC C   3      31.286   9.134   6.2140  0.00  0.00     0.000 O
BRANCH 30 34
ATOM     31  C1  BGC C   3      27.887   9.812   4.1350  0.00  0.00     0.000 C
ATOM     32  C2  BGC C   3      29.195   9.838   3.3090  0.00  0.00     0.000 C
ATOM     33  C3  BGC C   3      30.327   9.244   4.0740  0.00  0.00     0.000 C
ATOM     34  C4  BGC C   3      30.390   9.921   5.4450  0.00  0.00     0.000 C
ATOM     35  C5  BGC C   3      29.025   9.980   6.1770  0.00  0.00     0.000 C
ATOM     36  O5  BGC C   3      28.046  10.533   5.3320  0.00  0.00     0.000 O
ATOM     37   O  BGC C   3      29.199   9.215   2.0380  0.00  0.00     0.000 O
ATOM     39  HD  BGC C   3      29.645   9.375   2.7630  0.00  0.00     0.000 HD
ATOM     39   O  BGC C   3      31.576   9.420   3.3420  0.00  0.00     0.000 O
ATOM     41  HD  BGC C   3      32.022   9.579   4.0670  0.00  0.00     0.000 HD
ATOM     41   C  BGC C   3      29.013  10.815   7.4780  0.00  0.00     0.000 C
ATOM     42   O  BGC C   3      29.277  12.253   7.3030  0.00  0.00     0.000 O
ATOM     44  HD  BGC C   3      29.723  12.413   8.0280  0.00  0.00     0.000 HD
BRANCH 31 44
ATOM     44  O4  BGC C   4      26.834  10.365   3.4180  0.00  0.00     0.000 O
BRANCH 44 48
ATOM     45  C1  BGC C   4      22.798  10.161   2.7640  0.00  0.00     0.000 C
ATOM     46  C2  BGC C   4      23.129  11.042   4.0110  0.00  0.00     0.000 C
ATOM     47  C3  BGC C   4      24.645  11.228   3.8750  0.00  0.00     0.000 C
ATOM     48  C4  BGC C   4      25.512   9.999   3.6810  0.00  0.00     0.000 C
ATOM     49  C5  BGC C   4      24.990   9.303   2.4150  0.00  0.00     0.000 C
ATOM     50  O5  BGC C   4      23.638   9.022   2.5230  0.00  0.00     0.000 O
ATOM     51   O  BGC C   4      22.509  12.432   4.2420  0.00  0.00     0.000 O
ATOM     53  HD  BGC C   4      22.880  12.837   4.9120  0.00  0.00     0.000 HD
ATOM     53   O  BGC C   4      24.971  11.695   5.2680  0.00  0.00     0.000 O
ATOM     55  HD  BGC C   4      25.342  12.100   5.9370  0.00  0.00     0.000 HD
ATOM     55   C  BGC C   4      25.664   7.972   2.2020  0.00  0.00     0.000 C
ATOM     56   O  BGC C   4      25.567   7.048   3.2910  0.00  0.00     0.000 O
ATOM     58  HD  BGC C   4      25.938   7.453   3.9610  0.00  0.00     0.000 HD
BRANCH 45 58
ATOM     58  O4  BGC C   5      21.496   9.658   2.8040  0.00  0.00     0.000 O
BRANCH 58 62
ATOM     59  C1  BGC C   5      18.708   8.481   3.2460  0.00  0.00     0.000 C
ATOM     60  C2  BGC C   5      19.258   8.733   4.5600  0.00  0.00     0.000 C
ATOM     61  C3  BGC C   5      20.709   8.283   4.7140  0.00  0.00     0.000 C
ATOM     62  C4  BGC C   5      21.384   8.320   3.3500  0.00  0.00     0.000 C
ATOM     63  C5  BGC C   5      20.431   7.690   2.3610  0.00  0.00     0.000 C
ATOM     64  O5  BGC C   5      19.070   7.514   2.7500  0.00  0.00     0.000 O
ATOM     65   O  BGC C   5      21.036   5.410   2.8810  0.00  0.00     0.000 O
ATOM     67  HD  BGC C   5      21.169   6.097   2.3710  0.00  0.00     0.000 HD
ATOM     67   O  BGC C   5      21.036   5.410   2.8810  0.00  0.00     0.000 O
ATOM     69  HD  BGC C   5      21.169   6.097   2.3710  0.00  0.00     0.000 HD
ENDBRANCH 58 62
ENDBRANCH 45 58
ENDBRANCH 44 48
ENDBRANCH 31 44
ENDBRANCH 30 34
ENDBRANCH 17 30
ENDBRANCH 16 20
ENDBRANCH 1 16
TORSDOF 8
ENDMDL
MODEL 48
REMARK VINA RESULT:      -1.0     10.999     17.682
ROOT
ATOM      1  C1  BGC C   1      22.621  18.488  15.2990  0.00  0.00     0.000 C
ATOM      2  C2  BGC C   1      23.142  19.923  15.2380  0.00  0.00     0.000 C
ATOM      3  C3  BGC C   1      23.907  20.256  16.5130  0.00  0.00     0.000 C
ATOM      4  C4  BGC C   1      23.118  19.910  17.7640  0.00  0.00     0.000 C
ATOM      5  C5  BGC C   1      22.517  18.513  17.6410  0.00  0.00     0.000 C
ATOM      6  O5  BGC C   1      21.866  18.286  16.4320  0.00  0.00     0.000 O
ATOM      7   O  BGC C   1      23.991  20.017  14.1190  0.00  0.00     0.000 O
ATOM      9  HD  BGC C   1      23.617  20.677  14.5370  0.00  0.00     0.000 HD
ATOM      9   O  BGC C   1      24.263  21.645  16.4690  0.00  0.00     0.000 O
ATOM     11  HD  BGC C   1      23.889  22.304  16.8870  0.00  0.00     0.000 HD
ATOM     11   O  BGC C   1      24.026  19.982  18.8570  0.00  0.00     0.000 O
ATOM     13  HD  BGC C   1      23.652  20.642  19.2760  0.00  0.00     0.000 HD
ATOM     13   O  BGC C   1      20.339  19.172  18.6190  0.00  0.00     0.000 O
ATOM     15  HD  BGC C   1      19.965  19.832  19.0370  0.00  0.00     0.000 HD
ATOM     15   C  BGC C   1      21.507  18.322  18.7870  0.00  0.00     0.000 C
ENDROOT
BRANCH 1 16
ATOM     16  O4  BGC C   2      21.775  18.269  14.1950  0.00  0.00     0.000 O
BRANCH 16 20
ATOM     17  C1  BGC C   2      20.687  15.155  11.7870  0.00  0.00     0.000 C
ATOM     18  C2  BGC C   2      19.940  15.267  13.1070  0.00  0.00     0.000 C
ATOM     19  C3  BGC C   2      20.160  16.635  13.7370  0.00  0.00     0.000 C
ATOM     20  C4  BGC C   2      21.622  16.924  13.8070  0.00  0.00     0.000 C
ATOM     21  C5  BGC C   2      22.288  16.708  12.4520  0.00  0.00     0.000 C
ATOM     22  O5  BGC C   2      22.048  15.418  11.9780  0.00  0.00     0.000 O
ATOM     23   O  BGC C   2      18.543  15.042  12.8690  0.00  0.00     0.000 O
ATOM     25  HD  BGC C   2      18.069  15.593  13.3400  0.00  0.00     0.000 HD
ATOM     25   O  BGC C   2      19.604  16.641  15.0470  0.00  0.00     0.000 O
ATOM     27  HD  BGC C   2      19.130  17.191  15.5180  0.00  0.00     0.000 HD
ATOM     27   C  BGC C   2      23.809  16.965  12.4320  0.00  0.00     0.000 C
ATOM     28   O  BGC C   2      24.481  16.192  13.4390  0.00  0.00     0.000 O
ATOM     30  HD  BGC C   2      24.007  16.743  13.9110  0.00  0.00     0.000 HD
BRANCH 17 30
ATOM     30  O4  BGC C   3      20.549  13.843  11.2840  0.00  0.00     0.000 O
BRANCH 30 34
ATOM     31  C1  BGC C   3      20.129  11.815   7.8130  0.00  0.00     0.000 C
ATOM     32  C2  BGC C   3      21.547  12.361   8.1030  0.00  0.00     0.000 C
ATOM     33  C3  BGC C   3      21.684  12.775   9.5270  0.00  0.00     0.000 C
ATOM     34  C4  BGC C   3      20.524  13.713   9.8700  0.00  0.00     0.000 C
ATOM     35  C5  BGC C   3      19.135  13.172   9.4450  0.00  0.00     0.000 C
ATOM     36  O5  BGC C   3      19.157  12.793   8.0910  0.00  0.00     0.000 O
ATOM     37   O  BGC C   3      22.658  11.532   7.8180  0.00  0.00     0.000 O
ATOM     39  HD  BGC C   3      22.315  12.115   8.3590  0.00  0.00     0.000 HD
ATOM     39   O  BGC C   3      22.970  13.429   9.7410  0.00  0.00     0.000 O
ATOM     41  HD  BGC C   3      22.626  14.012  10.2810  0.00  0.00     0.000 HD
ATOM     41   C  BGC C   3      17.964  14.168   9.6090  0.00  0.00     0.000 C
ATOM     42   O  BGC C   3      18.043  15.374   8.7670  0.00  0.00     0.000 O
ATOM     44  HD  BGC C   3      17.700  15.957   9.3080  0.00  0.00     0.000 HD
BRANCH 31 44
ATOM     44  O4  BGC C   4      20.006  11.429   6.4850  0.00  0.00     0.000 O
BRANCH 44 48
ATOM     45  C1  BGC C   4      18.470   8.585   3.9720  0.00  0.00     0.000 C
ATOM     46  C2  BGC C   4      17.370   9.597   4.4260  0.00  0.00     0.000 C
ATOM     47  C3  BGC C   4      18.208  10.707   5.0740  0.00  0.00     0.000 C
ATOM     48  C4  BGC C   4      19.231  10.323   6.1240  0.00  0.00     0.000 C
ATOM     49  C5  BGC C   4      20.184   9.324   5.4480  0.00  0.00     0.000 C
ATOM     50  O5  BGC C   4      19.486   8.246   4.9280  0.00  0.00     0.000 O
ATOM     51   O  BGC C   4      16.391  10.266   3.4440  0.00  0.00     0.000 O
ATOM     53  HD  BGC C   4      15.925  10.884   3.8320  0.00  0.00     0.000 HD
ATOM     53   O  BGC C   4      17.133  11.420   5.8470  0.00  0.00     0.000 O
ATOM     55  HD  BGC C   4      16.666  12.038   6.2360  0.00  0.00     0.000 HD
ATOM     55   C  BGC C   4      21.156   8.737   6.4390  0.00  0.00     0.000 C
ATOM     56   O  BGC C   4      20.569   8.094   7.5770  0.00  0.00     0.000 O
ATOM     58  HD  BGC C   4      20.103   8.712   7.9650  0.00  0.00     0.000 HD
BRANCH 45 58
ATOM     58  O4  BGC C   5      17.928   7.364   3.5630  0.00  0.00     0.000 O
BRANCH 58 62
ATOM     59  C1  BGC C   5      16.967   4.471   3.3180  0.00  0.00     0.000 C
ATOM     60  C2  BGC C   5      16.001   5.284   2.6110  0.00  0.00     0.000 C
ATOM     61  C3  BGC C   5      15.593   6.547   3.3660  0.00  0.00     0.000 C
ATOM     62  C4  BGC C   5      16.735   6.964   4.2820  0.00  0.00     0.000 C
ATOM     63  C5  BGC C   5      17.230   5.717   4.9780  0.00  0.00     0.000 C
ATOM     64  O5  BGC C   5      16.838   4.450   4.4550  0.00  0.00     0.000 O
ATOM     65   O  BGC C   5      15.522   5.715   6.6870  0.00  0.00     0.000 O
ATOM     67  HD  BGC C   5      16.324   5.954   6.4630  0.00  0.00     0.000 HD
ATOM     67   O  BGC C   5      15.522   5.715   6.6870  0.00  0.00     0.000 O
ATOM     69  HD  BGC C   5      16.324   5.954   6.4630  0.00  0.00     0.000 HD
ENDBRANCH 58 62
ENDBRANCH 45 58
ENDBRANCH 44 48
ENDBRANCH 31 44
ENDBRANCH 30 34
ENDBRANCH 17 30
ENDBRANCH 16 20
ENDBRANCH 1 16
TORSDOF 8
ENDMDL
MODEL 49
REMARK VINA RESULT:      -1.0      9.841     21.587
ROOT
ATOM      1  C1  BGC C   1      35.687  11.681   8.2190  0.00  0.00     0.000 C
ATOM      2  C2  BGC C   1      36.731  12.714   7.7990  0.00  0.00     0.000 C
ATOM      3  C3  BGC C   1      38.122  12.251   8.2160  0.00  0.00     0.000 C
ATOM      4  C4  BGC C   1      38.176  11.839   9.6780  0.00  0.00     0.000 C
ATOM      5  C5  BGC C   1      36.995  10.933  10.0150  0.00  0.00     0.000 C
ATOM      6  O5  BGC C   1      35.769  11.418   9.5680  0.00  0.00     0.000 O
ATOM      7   O  BGC C   1      36.659  12.842   6.3990  0.00  0.00     0.000 O
ATOM      9  HD  BGC C   1      37.017  13.407   6.9490  0.00  0.00     0.000 HD
ATOM      9   O  BGC C   1      39.049  13.304   7.9210  0.00  0.00     0.000 O
ATOM     11  HD  BGC C   1      39.407  13.869   8.4710  0.00  0.00     0.000 HD
ATOM     11   O  BGC C   1      39.412  11.160   9.8690  0.00  0.00     0.000 O
ATOM     13  HD  BGC C   1      39.771  11.725  10.4190  0.00  0.00     0.000 HD
ATOM     13   O  BGC C   1      36.557  12.022  12.1970  0.00  0.00     0.000 O
ATOM     15  HD  BGC C   1      36.915  12.587  12.7470  0.00  0.00     0.000 HD
ATOM     15   C  BGC C   1      36.932  10.777  11.5460  0.00  0.00     0.000 C
ENDROOT
BRANCH 1 16
ATOM     16  O4  BGC C   2      34.405  12.213   7.9810  0.00  0.00     0.000 O
BRANCH 16 20
ATOM     17  C1  BGC C   2      30.695  10.839   6.9690  0.00  0.00     0.000 C
ATOM     18  C2  BGC C   2      31.058  10.749   8.4430  0.00  0.00     0.000 C
ATOM     19  C3  BGC C   2      32.279  11.605   8.7520  0.00  0.00     0.000 C
ATOM     20  C4  BGC C   2      33.379  11.265   7.8030  0.00  0.00     0.000 C
ATOM     21  C5  BGC C   2      32.891  11.310   6.3580  0.00  0.00     0.000 C
ATOM     22  O5  BGC C   2      31.789  10.473   6.1780  0.00  0.00     0.000 O
ATOM     23   O  BGC C   2      29.933  11.179   9.2250  0.00  0.00     0.000 O
ATOM     25  HD  BGC C   2      30.202  11.662   9.8920  0.00  0.00     0.000 HD
ATOM     25   O  BGC C   2      32.699  11.355  10.0870  0.00  0.00     0.000 O
ATOM     27  HD  BGC C   2      32.968  11.837  10.7540  0.00  0.00     0.000 HD
ATOM     27   C  BGC C   2      33.959  10.953   5.3040  0.00  0.00     0.000 C
ATOM     28   O  BGC C   2      34.558   9.676   5.5820  0.00  0.00     0.000 O
ATOM     30  HD  BGC C   2      34.827  10.159   6.2490  0.00  0.00     0.000 HD
BRANCH 17 30
ATOM     30  O4  BGC C   3      29.628   9.955   6.6980  0.00  0.00     0.000 O
BRANCH 30 34
ATOM     31  C1  BGC C   3      26.257   9.729   4.4790  0.00  0.00     0.000 C
ATOM     32  C2  BGC C   3      27.552   9.245   3.7840  0.00  0.00     0.000 C
ATOM     33  C3  BGC C   3      28.649   9.041   4.7700  0.00  0.00     0.000 C
ATOM     34  C4  BGC C   3      28.780  10.309   5.6160  0.00  0.00     0.000 C
ATOM     35  C5  BGC C   3      27.433  10.822   6.1870  0.00  0.00     0.000 C
ATOM     36  O5  BGC C   3      26.485  10.941   5.1560  0.00  0.00     0.000 O
ATOM     37   O  BGC C   3      27.494   8.070   2.9980  0.00  0.00     0.000 O
ATOM     39  HD  BGC C   3      27.960   8.541   3.5550  0.00  0.00     0.000 HD
ATOM     39   O  BGC C   3      29.897   8.738   4.0790  0.00  0.00     0.000 O
ATOM     41  HD  BGC C   3      30.364   9.209   4.6360  0.00  0.00     0.000 HD
ATOM     41   C  BGC C   3      27.500  12.196   6.8920  0.00  0.00     0.000 C
ATOM     42   O  BGC C   3      27.863  13.329   6.0240  0.00  0.00     0.000 O
ATOM     44  HD  BGC C   3      28.329  13.800   6.5810  0.00  0.00     0.000 HD
BRANCH 31 44
ATOM     44  O4  BGC C   4      25.237   9.917   3.5560  0.00  0.00     0.000 O
BRANCH 44 48
ATOM     45  C1  BGC C   4      21.213   9.544   2.9030  0.00  0.00     0.000 C
ATOM     46  C2  BGC C   4      21.520  10.691   3.9170  0.00  0.00     0.000 C
ATOM     47  C3  BGC C   4      23.039  10.850   3.7670  0.00  0.00     0.000 C
ATOM     48  C4  BGC C   4      23.911   9.615   3.8760  0.00  0.00     0.000 C
ATOM     49  C5  BGC C   4      23.412   8.641   2.7970  0.00  0.00     0.000 C
ATOM     50  O5  BGC C   4      22.059   8.384   2.9460  0.00  0.00     0.000 O
ATOM     51   O  BGC C   4      20.894  12.093   3.8100  0.00  0.00     0.000 O
ATOM     53  HD  BGC C   4      21.252  12.645   4.3730  0.00  0.00     0.000 HD
ATOM     53   O  BGC C   4      23.340  11.629   5.0180  0.00  0.00     0.000 O
ATOM     55  HD  BGC C   4      23.698  12.180   5.5810  0.00  0.00     0.000 HD
ATOM     55   C  BGC C   4      24.092   7.301   2.9100  0.00  0.00     0.000 C
ATOM     56   O  BGC C   4      23.979   6.653   4.1820  0.00  0.00     0.000 O
ATOM     58  HD  BGC C   4      24.337   7.205   4.7450  0.00  0.00     0.000 HD
BRANCH 45 58
ATOM     58  O4  BGC C   5      19.911   9.055   3.0380  0.00  0.00     0.000 O
BRANCH 58 62
ATOM     59  C1  BGC C   5      17.149   8.110   3.9480  0.00  0.00     0.000 C
ATOM     60  C2  BGC C   5      17.863   8.497   5.1450  0.00  0.00     0.000 C
ATOM     61  C3  BGC C   5      19.301   7.986   5.1920  0.00  0.00     0.000 C
ATOM     62  C4  BGC C   5      19.808   7.808   3.7680  0.00  0.00     0.000 C
ATOM     63  C5  BGC C   5      18.717   7.113   2.9870  0.00  0.00     0.000 C
ATOM     64  O5  BGC C   5      17.407   7.069   3.5490  0.00  0.00     0.000 O
ATOM     65   O  BGC C   5      19.282   4.887   3.7380  0.00  0.00     0.000 O
ATOM     67  HD  BGC C   5      19.382   5.494   3.1290  0.00  0.00     0.000 HD
ATOM     67   O  BGC C   5      19.282   4.887   3.7380  0.00  0.00     0.000 O
ATOM     69  HD  BGC C   5      19.382   5.494   3.1290  0.00  0.00     0.000 HD
ENDBRANCH 58 62
ENDBRANCH 45 58
ENDBRANCH 44 48
ENDBRANCH 31 44
ENDBRANCH 30 34
ENDBRANCH 17 30
ENDBRANCH 16 20
ENDBRANCH 1 16
TORSDOF 8
ENDMDL
MODEL 50
REMARK VINA RESULT:      -0.9     11.006     17.124
ROOT
ATOM      1  C1  BGC C   1      21.820   9.603   3.1610  0.00  0.00     0.000 C
ATOM      2  C2  BGC C   1      21.288   8.557   2.1830  0.00  0.00     0.000 C
ATOM      3  C3  BGC C   1      22.437   7.712   1.6460  0.00  0.00     0.000 C
ATOM      4  C4  BGC C   1      23.581   8.563   1.1200  0.00  0.00     0.000 C
ATOM      5  C5  BGC C   1      23.917   9.669   2.1160  0.00  0.00     0.000 C
ATOM      6  O5  BGC C   1      22.805  10.368   2.5780  0.00  0.00     0.000 O
ATOM      7   O  BGC C   1      20.373   7.749   2.8840  0.00  0.00     0.000 O
ATOM      9  HD  BGC C   1      20.435   7.828   2.0240  0.00  0.00     0.000 HD
ATOM      9   O  BGC C   1      21.913   6.836   0.6390  0.00  0.00     0.000 O
ATOM     11  HD  BGC C   1      21.975   6.914  -0.2210  0.00  0.00     0.000 HD
ATOM     11   O  BGC C   1      24.689   7.691   0.9290  0.00  0.00     0.000 O
ATOM     13  HD  BGC C   1      24.751   7.770   0.0680  0.00  0.00     0.000 HD
ATOM     13   O  BGC C   1      24.198  11.400   0.3660  0.00  0.00     0.000 O
ATOM     15  HD  BGC C   1      24.261  11.479  -0.4940  0.00  0.00     0.000 HD
ATOM     15   C  BGC C   1      24.869  10.663   1.4250  0.00  0.00     0.000 C
ENDROOT
BRANCH 1 16
ATOM     16  O4  BGC C   2      20.769  10.477   3.5020  0.00  0.00     0.000 O
BRANCH 16 20
ATOM     17  C1  BGC C   2      19.540  12.628   6.7470  0.00  0.00     0.000 C
ATOM     18  C2  BGC C   2      20.656  13.249   5.9220  0.00  0.00     0.000 C
ATOM     19  C3  BGC C   2      20.774  12.561   4.5700  0.00  0.00     0.000 C
ATOM     20  C4  BGC C   2      20.874  11.086   4.7660  0.00  0.00     0.000 C
ATOM     21  C5  BGC C   2      19.754  10.576   5.6690  0.00  0.00     0.000 C
ATOM     22  O5  BGC C   2      19.752  11.253   6.8900  0.00  0.00     0.000 O
ATOM     23   O  BGC C   2      20.383  14.648   5.7520  0.00  0.00     0.000 O
ATOM     25  HD  BGC C   2      20.579  14.893   4.9450  0.00  0.00     0.000 HD
ATOM     25   O  BGC C   2      21.937  13.038   3.9030  0.00  0.00     0.000 O
ATOM     27  HD  BGC C   2      22.133  13.283   3.0960  0.00  0.00     0.000 HD
ATOM     27   C  BGC C   2      19.788   9.059   5.9460  0.00  0.00     0.000 C
ATOM     28   O  BGC C   2      21.063   8.653   6.4680  0.00  0.00     0.000 O
ATOM     30  HD  BGC C   2      21.260   8.898   5.6610  0.00  0.00     0.000 HD
BRANCH 17 30
ATOM     30  O4  BGC C   3      19.527  13.217   8.0310  0.00  0.00     0.000 O
BRANCH 30 34
ATOM     31  C1  BGC C   3      16.951  14.412  10.9070  0.00  0.00     0.000 C
ATOM     32  C2  BGC C   3      17.326  12.911  10.9240  0.00  0.00     0.000 C
ATOM     33  C3  BGC C   3      18.518  12.644  10.0720  0.00  0.00     0.000 C
ATOM     34  C4  BGC C   3      18.271  13.255   8.6910  0.00  0.00     0.000 C
ATOM     35  C5  BGC C   3      17.776  14.723   8.7360  0.00  0.00     0.000 C
ATOM     36  O5  BGC C   3      16.670  14.835   9.5960  0.00  0.00     0.000 O
ATOM     37   O  BGC C   3      17.579  12.296  12.1730  0.00  0.00     0.000 O
ATOM     39  HD  BGC C   3      17.804  12.350  11.3390  0.00  0.00     0.000 HD
ATOM     39   O  BGC C   3      18.758  11.209   9.9770  0.00  0.00     0.000 O
ATOM     41  HD  BGC C   3      18.984  11.263   9.1430  0.00  0.00     0.000 HD
ATOM     41   C  BGC C   3      17.343  15.312   7.3730  0.00  0.00     0.000 C
ATOM     42   O  BGC C   3      16.176  14.663   6.7520  0.00  0.00     0.000 O
ATOM     44  HD  BGC C   3      16.401  14.717   5.9180  0.00  0.00     0.000 HD
BRANCH 31 44
ATOM     44  O4  BGC C   4      15.840  14.657  11.7040  0.00  0.00     0.000 O
BRANCH 44 48
ATOM     45  C1  BGC C   4      14.125  17.290  14.3280  0.00  0.00     0.000 C
ATOM     46  C2  BGC C   4      14.164  17.874  12.8800  0.00  0.00     0.000 C
ATOM     47  C3  BGC C   4      14.538  16.640  12.0490  0.00  0.00     0.000 C
ATOM     48  C4  BGC C   4      15.745  15.822  12.4680  0.00  0.00     0.000 C
ATOM     49  C5  BGC C   4      15.477  15.376  13.9140  0.00  0.00     0.000 C
ATOM     50  O5  BGC C   4      15.228  16.464  14.7330  0.00  0.00     0.000 O
ATOM     51   O  BGC C   4      12.945  18.533  12.2090  0.00  0.00     0.000 O
ATOM     53  HD  BGC C   4      13.094  18.698  11.3720  0.00  0.00     0.000 HD
ATOM     53   O  BGC C   4      14.971  17.311  10.7740  0.00  0.00     0.000 O
ATOM     55  HD  BGC C   4      15.120  17.476   9.9370  0.00  0.00     0.000 HD
ATOM     55   C  BGC C   4      16.680  14.689  14.5080  0.00  0.00     0.000 C
ATOM     56   O  BGC C   4      17.896  15.446  14.4930  0.00  0.00     0.000 O
ATOM     58  HD  BGC C   4      18.044  15.611  13.6560  0.00  0.00     0.000 HD
BRANCH 45 58
ATOM     58  O4  BGC C   5      14.038  18.291  15.2980  0.00  0.00     0.000 O
BRANCH 58 62
ATOM     59  C1  BGC C   5      13.822  18.334  18.3480  0.00  0.00     0.000 C
ATOM     60  C2  BGC C   5      13.244  17.081  17.9150  0.00  0.00     0.000 C
ATOM     61  C3  BGC C   5      12.308  17.219  16.7170  0.00  0.00     0.000 C
ATOM     62  C4  BGC C   5      12.728  18.433  15.9010  0.00  0.00     0.000 C
ATOM     63  C5  BGC C   5      12.985  19.560  16.8740  0.00  0.00     0.000 C
ATOM     64  O5  BGC C   5      13.129  19.241  18.2560  0.00  0.00     0.000 O
ATOM     65   O  BGC C   5      10.666  20.199  17.1030  0.00  0.00     0.000 O
ATOM     67  HD  BGC C   5      11.418  20.331  16.6930  0.00  0.00     0.000 HD
ATOM     67   O  BGC C   5      10.666  20.199  17.1030  0.00  0.00     0.000 O
ATOM     69  HD  BGC C   5      11.418  20.331  16.6930  0.00  0.00     0.000 HD
ENDBRANCH 58 62
ENDBRANCH 45 58
ENDBRANCH 44 48
ENDBRANCH 31 44
ENDBRANCH 30 34
ENDBRANCH 17 30
ENDBRANCH 16 20
ENDBRANCH 1 16
TORSDOF 8
ENDMDL
MODEL 51
REMARK VINA RESULT:      -0.9     14.050     19.431
ROOT
ATOM      1  C1  BGC C   1      21.438  24.564  11.3010  0.00  0.00     0.000 C
ATOM      2  C2  BGC C   1      22.820  25.208  11.3970  0.00  0.00     0.000 C
ATOM      3  C3  BGC C   1      22.806  26.323  12.4360  0.00  0.00     0.000 C
ATOM      4  C4  BGC C   1      21.656  27.293  12.2220  0.00  0.00     0.000 C
ATOM      5  C5  BGC C   1      20.357  26.529  11.9830  0.00  0.00     0.000 C
ATOM      6  O5  BGC C   1      20.471  25.508  11.0430  0.00  0.00     0.000 O
ATOM      7   O  BGC C   1      23.730  24.202  11.7720  0.00  0.00     0.000 O
ATOM      9  HD  BGC C   1      23.927  24.963  11.4080  0.00  0.00     0.000 HD
ATOM      9   O  BGC C   1      24.078  26.982  12.3990  0.00  0.00     0.000 O
ATOM     11  HD  BGC C   1      24.275  27.743  12.0350  0.00  0.00     0.000 HD
ATOM     11   O  BGC C   1      21.570  28.095  13.3960  0.00  0.00     0.000 O
ATOM     13  HD  BGC C   1      21.766  28.855  13.0310  0.00  0.00     0.000 HD
ATOM     13   O  BGC C   1      19.602  28.033  10.1650  0.00  0.00     0.000 O
ATOM     15  HD  BGC C   1      19.798  28.794   9.8010  0.00  0.00     0.000 HD
ATOM     15   C  BGC C   1      19.294  27.530  11.4950  0.00  0.00     0.000 C
ENDROOT
BRANCH 1 16
ATOM     16  O4  BGC C   2      21.435  23.664  10.2180  0.00  0.00     0.000 O
BRANCH 16 20
ATOM     17  C1  BGC C   2      19.652  20.130   9.2160  0.00  0.00     0.000 C
ATOM     18  C2  BGC C   2      18.817  21.381   8.9970  0.00  0.00     0.000 C
ATOM     19  C3  BGC C   2      19.687  22.628   9.0510  0.00  0.00     0.000 C
ATOM     20  C4  BGC C   2      20.499  22.616  10.3030  0.00  0.00     0.000 C
ATOM     21  C5  BGC C   2      21.236  21.290  10.4660  0.00  0.00     0.000 C
ATOM     22  O5  BGC C   2      20.345  20.216  10.4280  0.00  0.00     0.000 O
ATOM     23   O  BGC C   2      18.160  21.283   7.7240  0.00  0.00     0.000 O
ATOM     25  HD  BGC C   2      18.173  22.050   7.3230  0.00  0.00     0.000 HD
ATOM     25   O  BGC C   2      18.855  23.781   9.0280  0.00  0.00     0.000 O
ATOM     27  HD  BGC C   2      18.868  24.549   8.6270  0.00  0.00     0.000 HD
ATOM     27   C  BGC C   2      22.089  21.178  11.7470  0.00  0.00     0.000 C
ATOM     28   O  BGC C   2      21.305  21.453  12.9200  0.00  0.00     0.000 O
ATOM     30  HD  BGC C   2      21.318  22.220  12.5190  0.00  0.00     0.000 HD
BRANCH 17 30
ATOM     30  O4  BGC C   3      18.801  19.004   9.2640  0.00  0.00     0.000 O
BRANCH 30 34
ATOM     31  C1  BGC C   3      18.646  15.138   8.0940  0.00  0.00     0.000 C
ATOM     32  C2  BGC C   3      19.384  15.407   9.4270  0.00  0.00     0.000 C
ATOM     33  C3  BGC C   3      19.091  16.774   9.9390  0.00  0.00     0.000 C
ATOM     34  C4  BGC C   3      19.358  17.778   8.8150  0.00  0.00     0.000 C
ATOM     35  C5  BGC C   3      18.697  17.395   7.4660  0.00  0.00     0.000 C
ATOM     36  O5  BGC C   3      19.033  16.075   7.1190  0.00  0.00     0.000 O
ATOM     37   O  BGC C   3      19.165  14.518  10.5070  0.00  0.00     0.000 O
ATOM     39  HD  BGC C   3      19.288  15.340  10.2650  0.00  0.00     0.000 HD
ATOM     39   O  BGC C   3      19.915  17.062  11.1070  0.00  0.00     0.000 O
ATOM     41  HD  BGC C   3      20.038  17.884  10.8650  0.00  0.00     0.000 HD
ATOM     41   C  BGC C   3      19.093  18.286   6.2660  0.00  0.00     0.000 C
ATOM     42   O  BGC C   3      20.514  18.229   5.8850  0.00  0.00     0.000 O
ATOM     44  HD  BGC C   3      20.637  19.051   5.6420  0.00  0.00     0.000 HD
BRANCH 31 44
ATOM     44  O4  BGC C   4      18.920  13.862   7.6210  0.00  0.00     0.000 O
BRANCH 44 48
ATOM     45  C1  BGC C   4      17.323  10.561   5.8010  0.00  0.00     0.000 C
ATOM     46  C2  BGC C   4      17.258  11.812   4.8680  0.00  0.00     0.000 C
ATOM     47  C3  BGC C   4      18.164  12.806   5.6060  0.00  0.00     0.000 C
ATOM     48  C4  BGC C   4      17.911  13.062   7.0790  0.00  0.00     0.000 C
ATOM     49  C5  BGC C   4      18.016  11.695   7.7750  0.00  0.00     0.000 C
ATOM     50  O5  BGC C   4      17.143  10.781   7.2090  0.00  0.00     0.000 O
ATOM     51   O  BGC C   4      17.703  11.782   3.3950  0.00  0.00     0.000 O
ATOM     53  HD  BGC C   4      17.716  12.577   3.0510  0.00  0.00     0.000 HD
ATOM     53   O  BGC C   4      17.745  14.083   4.9320  0.00  0.00     0.000 O
ATOM     55  HD  BGC C   4      17.757  14.878   4.5880  0.00  0.00     0.000 HD
ATOM     55   C  BGC C   4      17.621  11.786   9.2260  0.00  0.00     0.000 C
ATOM     56   O  BGC C   4      16.316  12.318   9.4810  0.00  0.00     0.000 O
ATOM     58  HD  BGC C   4      16.328  13.112   9.1370  0.00  0.00     0.000 HD
BRANCH 45 58
ATOM     58  O4  BGC C   5      16.374   9.595   5.4550  0.00  0.00     0.000 O
BRANCH 58 62
ATOM     59  C1  BGC C   5      15.914   6.728   6.4130  0.00  0.00     0.000 C
ATOM     60  C2  BGC C   5      17.328   6.989   6.5710  0.00  0.00     0.000 C
ATOM     61  C3  BGC C   5      17.960   7.688   5.3700  0.00  0.00     0.000 C
ATOM     62  C4  BGC C   5      16.891   8.503   4.6550  0.00  0.00     0.000 C
ATOM     63  C5  BGC C   5      15.663   7.630   4.5420  0.00  0.00     0.000 C
ATOM     64  O5  BGC C   5      15.590   6.456   5.3490  0.00  0.00     0.000 O
ATOM     65   O  BGC C   5      16.415   6.428   2.5860  0.00  0.00     0.000 O
ATOM     67  HD  BGC C   5      15.958   7.095   2.8960  0.00  0.00     0.000 HD
ATOM     67   O  BGC C   5      16.415   6.428   2.5860  0.00  0.00     0.000 O
ATOM     69  HD  BGC C   5      15.958   7.095   2.8960  0.00  0.00     0.000 HD
ENDBRANCH 58 62
ENDBRANCH 45 58
ENDBRANCH 44 48
ENDBRANCH 31 44
ENDBRANCH 30 34
ENDBRANCH 17 30
ENDBRANCH 16 20
ENDBRANCH 1 16
TORSDOF 8
ENDMDL
MODEL 52
REMARK VINA RESULT:      -0.9     16.472     21.172
ROOT
ATOM      1  C1  BGC C   1      14.435  13.711   1.7770  0.00  0.00     0.000 C
ATOM      2  C2  BGC C   1      15.831  13.506   1.1900  0.00  0.00     0.000 C
ATOM      3  C3  BGC C   1      15.883  12.199   0.4090  0.00  0.00     0.000 C
ATOM      4  C4  BGC C   1      15.344  11.027   1.2120  0.00  0.00     0.000 C
ATOM      5  C5  BGC C   1      14.023  11.405   1.8770  0.00  0.00     0.000 C
ATOM      6  O5  BGC C   1      14.058  12.629   2.5400  0.00  0.00     0.000 O
ATOM      7   O  BGC C   1      16.095  14.596   0.3390  0.00  0.00     0.000 O
ATOM      9  HD  BGC C   1      16.681  14.058   0.6810  0.00  0.00     0.000 HD
ATOM      9   O  BGC C   1      17.237  11.985  -0.0100  0.00  0.00     0.000 O
ATOM     11  HD  BGC C   1      17.823  11.446   0.3320  0.00  0.00     0.000 HD
ATOM     11   O  BGC C   1      15.167   9.949   0.3000  0.00  0.00     0.000 O
ATOM     13  HD  BGC C   1      15.753   9.410   0.6420  0.00  0.00     0.000 HD
ATOM     13   O  BGC C   1      14.584  10.299   4.0210  0.00  0.00     0.000 O
ATOM     15  HD  BGC C   1      15.170   9.761   4.3640  0.00  0.00     0.000 HD
ATOM     15   C  BGC C   1      13.666  10.306   2.8940  0.00  0.00     0.000 C
ENDROOT
BRANCH 1 16
ATOM     16  O4  BGC C   2      14.466  14.828   2.6340  0.00  0.00     0.000 O
BRANCH 16 20
ATOM     17  C1  BGC C   2      11.934  17.801   3.8270  0.00  0.00     0.000 C
ATOM     18  C2  BGC C   2      11.788  16.473   4.5530  0.00  0.00     0.000 C
ATOM     19  C3  BGC C   2      12.993  15.580   4.2930  0.00  0.00     0.000 C
ATOM     20  C4  BGC C   2      13.233  15.480   2.8240  0.00  0.00     0.000 C
ATOM     21  C5  BGC C   2      13.286  16.863   2.1820  0.00  0.00     0.000 C
ATOM     22  O5  BGC C   2      12.125  17.587   2.4580  0.00  0.00     0.000 O
ATOM     23   O  BGC C   2      11.645  16.726   5.9590  0.00  0.00     0.000 O
ATOM     25  HD  BGC C   2      12.097  16.143   6.4130  0.00  0.00     0.000 HD
ATOM     25   O  BGC C   2      12.741  14.287   4.8300  0.00  0.00     0.000 O
ATOM     27  HD  BGC C   2      13.193  13.705   5.2840  0.00  0.00     0.000 HD
ATOM     27   C  BGC C   2      13.512  16.858   0.6550  0.00  0.00     0.000 C
ATOM     28   O  BGC C   2      12.535  16.043  -0.0120  0.00  0.00     0.000 O
ATOM     30  HD  BGC C   2      12.987  15.460   0.4420  0.00  0.00     0.000 HD
BRANCH 17 30
ATOM     30  O4  BGC C   3      10.757  18.560   4.0030  0.00  0.00     0.000 O
BRANCH 30 34
ATOM     31  C1  BGC C   3       9.535  22.377   4.5270  0.00  0.00     0.000 C
ATOM     32  C2  BGC C   3       9.770  21.943   3.0600  0.00  0.00     0.000 C
ATOM     33  C3  BGC C   3       9.873  20.462   2.9470  0.00  0.00     0.000 C
ATOM     34  C4  BGC C   3      10.908  19.971   3.9630  0.00  0.00     0.000 C
ATOM     35  C5  BGC C   3      10.699  20.536   5.3910  0.00  0.00     0.000 C
ATOM     36  O5  BGC C   3      10.590  21.937   5.3460  0.00  0.00     0.000 O
ATOM     37   O  BGC C   3       8.837  22.357   2.0800  0.00  0.00     0.000 O
ATOM     39  HD  BGC C   3       9.354  21.720   2.3590  0.00  0.00     0.000 HD
ATOM     39   O  BGC C   3      10.248  20.085   1.5890  0.00  0.00     0.000 O
ATOM     41  HD  BGC C   3      10.765  19.449   1.8680  0.00  0.00     0.000 HD
ATOM     41   C  BGC C   3      11.826  20.209   6.3970  0.00  0.00     0.000 C
ATOM     42   O  BGC C   3      13.141  20.790   6.0770  0.00  0.00     0.000 O
ATOM     44  HD  BGC C   3      13.658  20.154   6.3560  0.00  0.00     0.000 HD
BRANCH 31 44
ATOM     44  O4  BGC C   4       9.438  23.759   4.6280  0.00  0.00     0.000 O
BRANCH 44 48
ATOM     45  C1  BGC C   4       7.497  26.844   6.4920  0.00  0.00     0.000 C
ATOM     46  C2  BGC C   4       8.459  26.102   7.4730  0.00  0.00     0.000 C
ATOM     47  C3  BGC C   4       9.280  25.229   6.5140  0.00  0.00     0.000 C
ATOM     48  C4  BGC C   4       8.542  24.355   5.5190  0.00  0.00     0.000 C
ATOM     49  C5  BGC C   4       7.663  25.302   4.6870  0.00  0.00     0.000 C
ATOM     50  O5  BGC C   4       6.827  26.049   5.5010  0.00  0.00     0.000 O
ATOM     51   O  BGC C   4       9.449  26.839   8.3930  0.00  0.00     0.000 O
ATOM     53  HD  BGC C   4       9.989  26.287   8.7860  0.00  0.00     0.000 HD
ATOM     53   O  BGC C   4       9.869  24.255   7.4970  0.00  0.00     0.000 O
ATOM     55  HD  BGC C   4      10.409  23.703   7.8900  0.00  0.00     0.000 HD
ATOM     55   C  BGC C   4       6.750  24.536   3.7650  0.00  0.00     0.000 C
ATOM     56   O  BGC C   4       5.896  23.575   4.3960  0.00  0.00     0.000 O
ATOM     58  HD  BGC C   4       6.436  23.023   4.7890  0.00  0.00     0.000 HD
BRANCH 45 58
ATOM     58  O4  BGC C   5       6.481  27.526   7.1650  0.00  0.00     0.000 O
BRANCH 58 62
ATOM     59  C1  BGC C   5       4.159  29.234   8.1870  0.00  0.00     0.000 C
ATOM     60  C2  BGC C   5       4.240  29.466   6.7610  0.00  0.00     0.000 C
ATOM     61  C3  BGC C   5       5.664  29.686   6.2560  0.00  0.00     0.000 C
ATOM     62  C4  BGC C   5       6.633  28.967   7.1840  0.00  0.00     0.000 C
ATOM     63  C5  BGC C   5       6.209  29.277   8.6020  0.00  0.00     0.000 C
ATOM     64  O5  BGC C   5       4.911  29.827   8.8150  0.00  0.00     0.000 O
ATOM     65   O  BGC C   5       7.307  31.427   8.7040  0.00  0.00     0.000 O
ATOM     67  HD  BGC C   5       7.359  30.577   8.8660  0.00  0.00     0.000 HD
ATOM     67   O  BGC C   5       7.307  31.427   8.7040  0.00  0.00     0.000 O
ATOM     69  HD  BGC C   5       7.359  30.577   8.8660  0.00  0.00     0.000 HD
ENDBRANCH 58 62
ENDBRANCH 45 58
ENDBRANCH 44 48
ENDBRANCH 31 44
ENDBRANCH 30 34
ENDBRANCH 17 30
ENDBRANCH 16 20
ENDBRANCH 1 16
TORSDOF 8
ENDMDL
MODEL 53
REMARK VINA RESULT:      -0.8     16.551     21.130
ROOT
ATOM      1  C1  BGC C   1      19.867  26.661  12.9140  0.00  0.00     0.000 C
ATOM      2  C2  BGC C   1      21.086  27.538  13.1980  0.00  0.00     0.000 C
ATOM      3  C3  BGC C   1      20.901  28.280  14.5160  0.00  0.00     0.000 C
ATOM      4  C4  BGC C   1      19.562  28.995  14.5900  0.00  0.00     0.000 C
ATOM      5  C5  BGC C   1      18.441  28.065  14.1340  0.00  0.00     0.000 C
ATOM      6  O5  BGC C   1      18.709  27.405  12.9390  0.00  0.00     0.000 O
ATOM      7   O  BGC C   1      22.209  26.691  13.2680  0.00  0.00     0.000 O
ATOM      9  HD  BGC C   1      22.218  27.548  13.1410  0.00  0.00     0.000 HD
ATOM      9   O  BGC C   1      22.002  29.184  14.6770  0.00  0.00     0.000 O
ATOM     11  HD  BGC C   1      22.011  30.041  14.5500  0.00  0.00     0.000 HD
ATOM     11   O  BGC C   1      19.380  29.390  15.9450  0.00  0.00     0.000 O
ATOM     13  HD  BGC C   1      19.390  30.247  15.8180  0.00  0.00     0.000 HD
ATOM     13   O  BGC C   1      17.278  29.821  12.8300  0.00  0.00     0.000 O
ATOM     15  HD  BGC C   1      17.287  30.678  12.7030  0.00  0.00     0.000 HD
ATOM     15   C  BGC C   1      17.164  28.906  13.9550  0.00  0.00     0.000 C
ENDROOT
BRANCH 1 16
ATOM     16  O4  BGC C   2      19.987  26.129  11.6160  0.00  0.00     0.000 O
BRANCH 16 20
ATOM     17  C1  BGC C   2      18.903  22.736   9.6200  0.00  0.00     0.000 C
ATOM     18  C2  BGC C   2      17.826  23.802   9.7540  0.00  0.00     0.000 C
ATOM     19  C3  BGC C   2      18.433  25.132  10.1760  0.00  0.00     0.000 C
ATOM     20  C4  BGC C   2      19.284  24.932  11.3840  0.00  0.00     0.000 C
ATOM     21  C5  BGC C   2      20.276  23.793  11.1730  0.00  0.00     0.000 C
ATOM     22  O5  BGC C   2      19.616  22.616  10.8170  0.00  0.00     0.000 O
ATOM     23   O  BGC C   2      17.148  23.936   8.4950  0.00  0.00     0.000 O
ATOM     25  HD  BGC C   2      16.990  24.771   8.3310  0.00  0.00     0.000 HD
ATOM     25   O  BGC C   2      17.387  26.051  10.4690  0.00  0.00     0.000 O
ATOM     27  HD  BGC C   2      17.229  26.886  10.3040  0.00  0.00     0.000 HD
ATOM     27   C  BGC C   2      21.189  23.499  12.3820  0.00  0.00     0.000 C
ATOM     28   O  BGC C   2      20.418  23.266  13.5720  0.00  0.00     0.000 O
ATOM     30  HD  BGC C   2      20.261  24.102  13.4070  0.00  0.00     0.000 HD
BRANCH 17 30
ATOM     30  O4  BGC C   3      18.296  21.495   9.3310  0.00  0.00     0.000 O
BRANCH 30 34
ATOM     31  C1  BGC C   3      18.905  18.145   7.1530  0.00  0.00     0.000 C
ATOM     32  C2  BGC C   3      19.566  18.165   8.5520  0.00  0.00     0.000 C
ATOM     33  C3  BGC C   3      19.008  19.258   9.3960  0.00  0.00     0.000 C
ATOM     34  C4  BGC C   3      19.084  20.566   8.6030  0.00  0.00     0.000 C
ATOM     35  C5  BGC C   3      18.521  20.457   7.1620  0.00  0.00     0.000 C
ATOM     36  O5  BGC C   3      19.111  19.370   6.4940  0.00  0.00     0.000 O
ATOM     37   O  BGC C   3      19.515  16.988   9.3360  0.00  0.00     0.000 O
ATOM     39  HD  BGC C   3      19.478  17.853   9.3330  0.00  0.00     0.000 HD
ATOM     39   O  BGC C   3      19.751  19.358  10.6470  0.00  0.00     0.000 O
ATOM     41  HD  BGC C   3      19.713  20.224  10.6440  0.00  0.00     0.000 HD
ATOM     41   C  BGC C   3      18.747  21.702   6.2740  0.00  0.00     0.000 C
ATOM     42   O  BGC C   3      20.155  22.016   5.9810  0.00  0.00     0.000 O
ATOM     44  HD  BGC C   3      20.118  22.881   5.9780  0.00  0.00     0.000 HD
BRANCH 31 44
ATOM     44  O4  BGC C   4      19.427  17.123   6.3710  0.00  0.00     0.000 O
BRANCH 44 48
ATOM     45  C1  BGC C   4      18.532  14.253   3.5920  0.00  0.00     0.000 C
ATOM     46  C2  BGC C   4      18.415  15.688   2.9860  0.00  0.00     0.000 C
ATOM     47  C3  BGC C   4      19.078  16.546   4.0710  0.00  0.00     0.000 C
ATOM     48  C4  BGC C   4      18.612  16.390   5.5050  0.00  0.00     0.000 C
ATOM     49  C5  BGC C   4      18.814  14.909   5.8620  0.00  0.00     0.000 C
ATOM     50  O5  BGC C   4      18.151  14.086   4.9660  0.00  0.00     0.000 O
ATOM     51   O  BGC C   4      19.040  16.081   1.6350  0.00  0.00     0.000 O
ATOM     53  HD  BGC C   4      18.987  16.934   1.4970  0.00  0.00     0.000 HD
ATOM     53   O  BGC C   4      18.577  17.905   3.6640  0.00  0.00     0.000 O
ATOM     55  HD  BGC C   4      18.524  18.758   3.5260  0.00  0.00     0.000 HD
ATOM     55   C  BGC C   4      18.233  14.586   7.2140  0.00  0.00     0.000 C
ATOM     56   O  BGC C   4      16.846  14.901   7.3840  0.00  0.00     0.000 O
ATOM     58  HD  BGC C   4      16.793  15.754   7.2450  0.00  0.00     0.000 HD
BRANCH 45 58
ATOM     58  O4  BGC C   5      17.775  13.317   2.8830  0.00  0.00     0.000 O
BRANCH 58 62
ATOM     59  C1  BGC C   5      16.495  11.723   0.6090  0.00  0.00     0.000 C
ATOM     60  C2  BGC C   5      16.613  10.815   1.7290  0.00  0.00     0.000 C
ATOM     61  C3  BGC C   5      17.965  10.885   2.4340  0.00  0.00     0.000 C
ATOM     62  C4  BGC C   5      18.551  12.276   2.2410  0.00  0.00     0.000 C
ATOM     63  C5  BGC C   5      18.366  12.642   0.7860  0.00  0.00     0.000 C
ATOM     64  O5  BGC C   5      17.456  11.871   0.0050  0.00  0.00     0.000 O
ATOM     65   O  BGC C   5      20.307  11.438  -0.0020  0.00  0.00     0.000 O
ATOM     67  HD  BGC C   5      19.983  12.194   0.2690  0.00  0.00     0.000 HD
ATOM     67   O  BGC C   5      20.307  11.438  -0.0020  0.00  0.00     0.000 O
ATOM     69  HD  BGC C   5      19.983  12.194   0.2690  0.00  0.00     0.000 HD
ENDBRANCH 58 62
ENDBRANCH 45 58
ENDBRANCH 44 48
ENDBRANCH 31 44
ENDBRANCH 30 34
ENDBRANCH 17 30
ENDBRANCH 16 20
ENDBRANCH 1 16
TORSDOF 8
ENDMDL
MODEL 54
REMARK VINA RESULT:      -0.7     17.421     21.608
ROOT
ATOM      1  C1  BGC C   1      14.115  14.553   1.7160  0.00  0.00     0.000 C
ATOM      2  C2  BGC C   1      15.495  14.114   1.2290  0.00  0.00     0.000 C
ATOM      3  C3  BGC C   1      15.368  12.878   0.3460  0.00  0.00     0.000 C
ATOM      4  C4  BGC C   1      14.537  11.787   1.0000  0.00  0.00     0.000 C
ATOM      5  C5  BGC C   1      13.257  12.376   1.5850  0.00  0.00     0.000 C
ATOM      6  O5  BGC C   1      13.464  13.520   2.3510  0.00  0.00     0.000 O
ATOM      7   O  BGC C   1      16.045  15.183   0.4980  0.00  0.00     0.000 O
ATOM      9  HD  BGC C   1      16.480  14.517   0.8400  0.00  0.00     0.000 HD
ATOM      9   O  BGC C   1      16.689  12.426   0.0210  0.00  0.00     0.000 O
ATOM     11  HD  BGC C   1      17.123  11.759   0.3620  0.00  0.00     0.000 HD
ATOM     11   O  BGC C   1      14.245  10.830  -0.0120  0.00  0.00     0.000 O
ATOM     13  HD  BGC C   1      14.679  10.163   0.3290  0.00  0.00     0.000 HD
ATOM     13   O  BGC C   1      13.384  11.037   3.6660  0.00  0.00     0.000 O
ATOM     15  HD  BGC C   1      13.819  10.371   4.0070  0.00  0.00     0.000 HD
ATOM     15   C  BGC C   1      12.598  11.304   2.4720  0.00  0.00     0.000 C
ENDROOT
BRANCH 1 16
ATOM     16  O4  BGC C   2      14.278  15.581   2.6650  0.00  0.00     0.000 O
BRANCH 16 20
ATOM     17  C1  BGC C   2      12.263  18.908   3.9090  0.00  0.00     0.000 C
ATOM     18  C2  BGC C   2      11.791  17.586   4.4950  0.00  0.00     0.000 C
ATOM     19  C3  BGC C   2      12.820  16.491   4.2560  0.00  0.00     0.000 C
ATOM     20  C4  BGC C   2      13.182  16.452   2.8100  0.00  0.00     0.000 C
ATOM     21  C5  BGC C   2      13.566  17.839   2.3030  0.00  0.00     0.000 C
ATOM     22  O5  BGC C   2      12.545  18.760   2.5470  0.00  0.00     0.000 O
ATOM     23   O  BGC C   2      11.559  17.760   5.9010  0.00  0.00     0.000 O
ATOM     25  HD  BGC C   2      11.842  17.066   6.3360  0.00  0.00     0.000 HD
ATOM     25   O  BGC C   2      12.271  15.239   4.6490  0.00  0.00     0.000 O
ATOM     27  HD  BGC C   2      12.553  14.546   5.0840  0.00  0.00     0.000 HD
ATOM     27   C  BGC C   2      13.939  17.901   0.8070  0.00  0.00     0.000 C
ATOM     28   O  BGC C   2      12.895  17.350  -0.0120  0.00  0.00     0.000 O
ATOM     30  HD  BGC C   2      13.178  16.656   0.4230  0.00  0.00     0.000 HD
BRANCH 17 30
ATOM     30  O4  BGC C   3      11.243  19.873   4.0540  0.00  0.00     0.000 O
BRANCH 30 34
ATOM     31  C1  BGC C   3      10.741  23.778   4.9680  0.00  0.00     0.000 C
ATOM     32  C2  BGC C   3      11.038  23.470   3.4810  0.00  0.00     0.000 C
ATOM     33  C3  BGC C   3      10.861  22.021   3.1860  0.00  0.00     0.000 C
ATOM     34  C4  BGC C   3      11.670  21.218   4.2080  0.00  0.00     0.000 C
ATOM     35  C5  BGC C   3      11.428  21.652   5.6770  0.00  0.00     0.000 C
ATOM     36  O5  BGC C   3      11.599  23.042   5.8050  0.00  0.00     0.000 O
ATOM     37   O  BGC C   3      10.310  24.173   2.4910  0.00  0.00     0.000 O
ATOM     39  HD  BGC C   3      10.661  23.416   2.7260  0.00  0.00     0.000 HD
ATOM     39   O  BGC C   3      11.295  21.727   1.8250  0.00  0.00     0.000 O
ATOM     41  HD  BGC C   3      11.646  20.971   2.0600  0.00  0.00     0.000 HD
ATOM     41   C  BGC C   3      12.359  20.991   6.7180  0.00  0.00     0.000 C
ATOM     42   O  BGC C   3      13.788  21.320   6.5810  0.00  0.00     0.000 O
ATOM     44  HD  BGC C   3      14.139  20.564   6.8160  0.00  0.00     0.000 HD
BRANCH 31 44
ATOM     44  O4  BGC C   4      10.905  25.130   5.2390  0.00  0.00     0.000 O
BRANCH 44 48
ATOM     45  C1  BGC C   4       9.418  28.324   7.3230  0.00  0.00     0.000 C
ATOM     46  C2  BGC C   4      10.120  27.302   8.2730  0.00  0.00     0.000 C
ATOM     47  C3  BGC C   4      10.848  26.390   7.2770  0.00  0.00     0.000 C
ATOM     48  C4  BGC C   4      10.057  25.795   6.1280  0.00  0.00     0.000 C
ATOM     49  C5  BGC C   4       9.461  26.984   5.3580  0.00  0.00     0.000 C
ATOM     50  O5  BGC C   4       8.709  27.792   6.1940  0.00  0.00     0.000 O
ATOM     51   O  BGC C   4      11.138  27.721   9.3490  0.00  0.00     0.000 O
ATOM     53  HD  BGC C   4      11.520  27.032   9.7090  0.00  0.00     0.000 HD
ATOM     53   O  BGC C   4      11.141  25.217   8.1710  0.00  0.00     0.000 O
ATOM     55  HD  BGC C   4      11.524  24.528   8.5310  0.00  0.00     0.000 HD
ATOM     55   C  BGC C   4       8.514  26.521   4.2820  0.00  0.00     0.000 C
ATOM     56   O  BGC C   4       7.434  25.690   4.7230  0.00  0.00     0.000 O
ATOM     58  HD  BGC C   4       7.817  25.001   5.0830  0.00  0.00     0.000 HD
BRANCH 45 58
ATOM     58  O4  BGC C   5       8.490  29.121   7.9990  0.00  0.00     0.000 O
BRANCH 58 62
ATOM     59  C1  BGC C   5       9.534  31.449   9.6860  0.00  0.00     0.000 C
ATOM     60  C2  BGC C   5       8.091  31.551   9.6950  0.00  0.00     0.000 C
ATOM     61  C3  BGC C   5       7.453  31.351   8.3230  0.00  0.00     0.000 C
ATOM     62  C4  BGC C   5       8.362  30.468   7.4810  0.00  0.00     0.000 C
ATOM     63  C5  BGC C   5       9.774  30.976   7.6610  0.00  0.00     0.000 C
ATOM     64  O5  BGC C   5      10.040  31.863   8.7460  0.00  0.00     0.000 O
ATOM     65   O  BGC C   5       9.584  32.760   6.0440  0.00  0.00     0.000 O
ATOM     67  HD  BGC C   5       9.820  31.941   6.1950  0.00  0.00     0.000 HD
ATOM     67   O  BGC C   5       9.584  32.760   6.0440  0.00  0.00     0.000 O
ATOM     69  HD  BGC C   5       9.820  31.941   6.1950  0.00  0.00     0.000 HD
ENDBRANCH 58 62
ENDBRANCH 45 58
ENDBRANCH 44 48
ENDBRANCH 31 44
ENDBRANCH 30 34
ENDBRANCH 17 30
ENDBRANCH 16 20
ENDBRANCH 1 16
TORSDOF 8
ENDMDL
MODEL 55
REMARK VINA RESULT:      -0.6     13.923     26.567
ROOT
ATOM      1  C1  BGC C   1      42.931   9.764   4.2840  0.00  0.00     0.000 C
ATOM      2  C2  BGC C   1      44.225   9.123   4.7830  0.00  0.00     0.000 C
ATOM      3  C3  BGC C   1      45.146  10.191   5.3620  0.00  0.00     0.000 C
ATOM      4  C4  BGC C   1      45.332  11.365   4.4150  0.00  0.00     0.000 C
ATOM      5  C5  BGC C   1      43.982  11.815   3.8620  0.00  0.00     0.000 C
ATOM      6  O5  BGC C   1      43.194  10.772   3.3850  0.00  0.00     0.000 O
ATOM      7   O  BGC C   1      43.879   8.187   5.7750  0.00  0.00     0.000 O
ATOM      9  HD  BGC C   1      44.625   8.218   5.3360  0.00  0.00     0.000 HD
ATOM      9   O  BGC C   1      46.394   9.568   5.6950  0.00  0.00     0.000 O
ATOM     11  HD  BGC C   1      47.140   9.600   5.2560  0.00  0.00     0.000 HD
ATOM     11   O  BGC C   1      45.950  12.405   5.1650  0.00  0.00     0.000 O
ATOM     13  HD  BGC C   1      46.696  12.436   4.7260  0.00  0.00     0.000 HD
ATOM     13   O  BGC C   1      44.837  12.138   1.5590  0.00  0.00     0.000 O
ATOM     15  HD  BGC C   1      45.583  12.169   1.1200  0.00  0.00     0.000 HD
ATOM     15   C  BGC C   1      44.242  12.802   2.7090  0.00  0.00     0.000 C
ENDROOT
BRANCH 1 16
ATOM     16  O4  BGC C   2      42.181   8.788   3.6000  0.00  0.00     0.000 O
BRANCH 16 20
ATOM     17  C1  BGC C   2      38.248   7.926   2.9140  0.00  0.00     0.000 C
ATOM     18  C2  BGC C   2      38.874   8.959   1.9890  0.00  0.00     0.000 C
ATOM     19  C3  BGC C   2      40.392   8.928   2.0940  0.00  0.00     0.000 C
ATOM     20  C4  BGC C   2      40.796   9.030   3.5270  0.00  0.00     0.000 C
ATOM     21  C5  BGC C   2      40.056   8.003   4.3790  0.00  0.00     0.000 C
ATOM     22  O5  BGC C   2      38.674   8.134   4.2300  0.00  0.00     0.000 O
ATOM     23   O  BGC C   2      38.458   8.686   0.6420  0.00  0.00     0.000 O
ATOM     25  HD  BGC C   2      39.122   8.802   0.0980  0.00  0.00     0.000 HD
ATOM     25   O  BGC C   2      40.933  10.021   1.3630  0.00  0.00     0.000 O
ATOM     27  HD  BGC C   2      41.596  10.137   0.8180  0.00  0.00     0.000 HD
ATOM     27   C  BGC C   2      40.396   8.046   5.8830  0.00  0.00     0.000 C
ATOM     28   O  BGC C   2      40.203   9.364   6.4230  0.00  0.00     0.000 O
ATOM     30  HD  BGC C   2      40.867   9.479   5.8780  0.00  0.00     0.000 HD
BRANCH 17 30
ATOM     30  O4  BGC C   3      36.843   8.053   2.8700  0.00  0.00     0.000 O
BRANCH 30 34
ATOM     31  C1  BGC C   3      33.488   5.801   2.9800  0.00  0.00     0.000 C
ATOM     32  C2  BGC C   3      34.088   6.178   4.3560  0.00  0.00     0.000 C
ATOM     33  C3  BGC C   3      35.091   7.271   4.2240  0.00  0.00     0.000 C
ATOM     34  C4  BGC C   3      36.098   6.875   3.1420  0.00  0.00     0.000 C
ATOM     35  C5  BGC C   3      35.442   6.386   1.8260  0.00  0.00     0.000 C
ATOM     36  O5  BGC C   3      34.501   5.378   2.1000  0.00  0.00     0.000 O
ATOM     37   O  BGC C   3      33.204   6.566   5.3910  0.00  0.00     0.000 O
ATOM     39  HD  BGC C   3      33.971   6.699   5.0110  0.00  0.00     0.000 HD
ATOM     39   O  BGC C   3      35.754   7.503   5.5020  0.00  0.00     0.000 O
ATOM     41  HD  BGC C   3      36.521   7.636   5.1220  0.00  0.00     0.000 HD
ATOM     41   C  BGC C   3      36.423   5.806   0.7800  0.00  0.00     0.000 C
ATOM     42   O  BGC C   3      37.127   4.580   1.1920  0.00  0.00     0.000 O
ATOM     44  HD  BGC C   3      37.894   4.714   0.8130  0.00  0.00     0.000 HD
BRANCH 31 44
ATOM     44  O4  BGC C   4      32.553   4.782   3.1070  0.00  0.00     0.000 O
BRANCH 44 48
ATOM     45  C1  BGC C   4      28.965   3.355   1.7480  0.00  0.00     0.000 C
ATOM     46  C2  BGC C   4      30.100   3.130   0.7000  0.00  0.00     0.000 C
ATOM     47  C3  BGC C   4      31.358   3.439   1.5220  0.00  0.00     0.000 C
ATOM     48  C4  BGC C   4      31.417   4.741   2.2960  0.00  0.00     0.000 C
ATOM     49  C5  BGC C   4      30.205   4.733   3.2410  0.00  0.00     0.000 C
ATOM     50  O5  BGC C   4      29.026   4.554   2.5360  0.00  0.00     0.000 O
ATOM     51   O  BGC C   4      30.329   1.785  -0.0120  0.00  0.00     0.000 O
ATOM     53  HD  BGC C   4      31.063   1.789  -0.4710  0.00  0.00     0.000 HD
ATOM     53   O  BGC C   4      32.352   3.625   0.4090  0.00  0.00     0.000 O
ATOM     55  HD  BGC C   4      33.087   3.629  -0.0500  0.00  0.00     0.000 HD
ATOM     55   C  BGC C   4      30.054   6.052   3.9530  0.00  0.00     0.000 C
ATOM     56   O  BGC C   4      29.953   7.204   3.1090  0.00  0.00     0.000 O
ATOM     58  HD  BGC C   4      30.687   7.209   2.6490  0.00  0.00     0.000 HD
BRANCH 45 58
ATOM     58  O4  BGC C   5      27.698   3.365   1.1600  0.00  0.00     0.000 O
BRANCH 58 62
ATOM     59  C1  BGC C   5      24.910   2.891  -0.0030  0.00  0.00     0.000 C
ATOM     60  C2  BGC C   5      24.847   4.148   0.7100  0.00  0.00     0.000 C
ATOM     61  C3  BGC C   5      25.517   4.110   2.0800  0.00  0.00     0.000 C
ATOM     62  C4  BGC C   5      26.611   3.051   2.0650  0.00  0.00     0.000 C
ATOM     63  C5  BGC C   5      26.035   1.822   1.4000  0.00  0.00     0.000 C
ATOM     64  O5  BGC C   5      24.826   1.958   0.6560  0.00  0.00     0.000 O
ATOM     65   O  BGC C   5      24.912   0.998   3.3740  0.00  0.00     0.000 O
ATOM     67  HD  BGC C   5      25.625   0.976   2.8820  0.00  0.00     0.000 HD
ATOM     67   O  BGC C   5      24.912   0.998   3.3740  0.00  0.00     0.000 O
ATOM     69  HD  BGC C   5      25.625   0.976   2.8820  0.00  0.00     0.000 HD
ENDBRANCH 58 62
ENDBRANCH 45 58
ENDBRANCH 44 48
ENDBRANCH 31 44
ENDBRANCH 30 34
ENDBRANCH 17 30
ENDBRANCH 16 20
ENDBRANCH 1 16
TORSDOF 8
ENDMDL
MODEL 56
REMARK VINA RESULT:      -0.2     59.679     62.995
ROOT
ATOM      1  C1  BGC C   1      22.311  63.765  17.4520  0.00  0.00     0.000 C
ATOM      2  C2  BGC C   1      23.340  62.664  17.1980  0.00  0.00     0.000 C
ATOM      3  C3  BGC C   1      24.665  63.025  17.8600  0.00  0.00     0.000 C
ATOM      4  C4  BGC C   1      25.123  64.429  17.5020  0.00  0.00     0.000 C
ATOM      5  C5  BGC C   1      23.966  65.414  17.6460  0.00  0.00     0.000 C
ATOM      6  O5  BGC C   1      22.787  64.988  17.0400  0.00  0.00     0.000 O
ATOM      7   O  BGC C   1      22.829  61.472  17.7470  0.00  0.00     0.000 O
ATOM      9  HD  BGC C   1      23.458  61.537  17.1560  0.00  0.00     0.000 HD
ATOM      9   O  BGC C   1      25.633  62.034  17.4870  0.00  0.00     0.000 O
ATOM     11  HD  BGC C   1      26.262  62.099  16.8960  0.00  0.00     0.000 HD
ATOM     11   O  BGC C   1      26.186  64.755  18.3910  0.00  0.00     0.000 O
ATOM     13  HD  BGC C   1      26.815  64.820  17.7990  0.00  0.00     0.000 HD
ATOM     13   O  BGC C   1      24.519  66.638  15.5640  0.00  0.00     0.000 O
ATOM     15  HD  BGC C   1      25.149  66.703  14.9730  0.00  0.00     0.000 HD
ATOM     15   C  BGC C   1      24.391  66.749  17.0090  0.00  0.00     0.000 C
ENDROOT
BRANCH 1 16
ATOM     16  O4  BGC C   2      21.161  63.491  16.6880  0.00  0.00     0.000 O
BRANCH 16 20
ATOM     17  C1  BGC C   2      17.128  64.060  16.9730  0.00  0.00     0.000 C
ATOM     18  C2  BGC C   2      17.932  65.248  16.4700  0.00  0.00     0.000 C
ATOM     19  C3  BGC C   2      19.334  64.816  16.0620  0.00  0.00     0.000 C
ATOM     20  C4  BGC C   2      19.963  64.047  17.1750  0.00  0.00     0.000 C
ATOM     21  C5  BGC C   2      19.044  62.929  17.6570  0.00  0.00     0.000 C
ATOM     22  O5  BGC C   2      17.797  63.435  18.0300  0.00  0.00     0.000 O
ATOM     23   O  BGC C   2      17.244  65.835  15.3550  0.00  0.00     0.000 O
ATOM     25  HD  BGC C   2      17.812  66.064  14.7430  0.00  0.00     0.000 HD
ATOM     25   O  BGC C   2      20.113  65.971  15.7740  0.00  0.00     0.000 O
ATOM     27  HD  BGC C   2      20.681  66.200  15.1620  0.00  0.00     0.000 HD
ATOM     27   C  BGC C   2      19.604  62.089  18.8230  0.00  0.00     0.000 C
ATOM     28   O  BGC C   2      19.986  62.923  19.9290  0.00  0.00     0.000 O
ATOM     30  HD  BGC C   2      20.554  63.152  19.3170  0.00  0.00     0.000 HD
BRANCH 17 30
ATOM     30  O4  BGC C   3      15.874  64.511  17.4400  0.00  0.00     0.000 O
BRANCH 30 34
ATOM     31  C1  BGC C   3      11.990  63.399  17.5690  0.00  0.00     0.000 C
ATOM     32  C2  BGC C   3      12.890  62.825  18.6890  0.00  0.00     0.000 C
ATOM     33  C3  BGC C   3      14.188  63.551  18.7630  0.00  0.00     0.000 C
ATOM     34  C4  BGC C   3      14.804  63.582  17.3620  0.00  0.00     0.000 C
ATOM     35  C5  BGC C   3      13.821  64.046  16.2570  0.00  0.00     0.000 C
ATOM     36  O5  BGC C   3      12.632  63.299  16.3220  0.00  0.00     0.000 O
ATOM     37   O  BGC C   3      12.378  62.784  20.0080  0.00  0.00     0.000 O
ATOM     39  HD  BGC C   3      13.073  62.920  19.5100  0.00  0.00     0.000 HD
ATOM     39   O  BGC C   3      15.078  62.897  19.7140  0.00  0.00     0.000 O
ATOM     41  HD  BGC C   3      15.773  63.033  19.2160  0.00  0.00     0.000 HD
ATOM     41   C  BGC C   3      14.350  63.915  14.8100  0.00  0.00     0.000 C
ATOM     42   O  BGC C   3      14.615  62.538  14.3610  0.00  0.00     0.000 O
ATOM     44  HD  BGC C   3      15.310  62.674  13.8630  0.00  0.00     0.000 HD
BRANCH 31 44
ATOM     44  O4  BGC C   4      10.780  62.720  17.5050  0.00  0.00     0.000 O
BRANCH 44 48
ATOM     45  C1  BGC C   4       6.751  63.123  16.9070  0.00  0.00     0.000 C
ATOM     46  C2  BGC C   4       7.547  63.334  15.5800  0.00  0.00     0.000 C
ATOM     47  C3  BGC C   4       8.946  62.839  15.9660  0.00  0.00     0.000 C
ATOM     48  C4  BGC C   4       9.590  63.394  17.2220  0.00  0.00     0.000 C
ATOM     49  C5  BGC C   4       8.623  63.076  18.3740  0.00  0.00     0.000 C
ATOM     50  O5  BGC C   4       7.361  63.588  18.1200  0.00  0.00     0.000 O
ATOM     51   O  BGC C   4       7.162  62.651  14.2550  0.00  0.00     0.000 O
ATOM     53  HD  BGC C   4       7.766  62.776  13.6460  0.00  0.00     0.000 HD
ATOM     53   O  BGC C   4       9.749  63.438  14.8440  0.00  0.00     0.000 O
ATOM     55  HD  BGC C   4      10.352  63.563  14.2350  0.00  0.00     0.000 HD
ATOM     55   C  BGC C   4       9.070  63.722  19.6600  0.00  0.00     0.000 C
ATOM     56   O  BGC C   4       9.253  65.142  19.6090  0.00  0.00     0.000 O
ATOM     58  HD  BGC C   4       9.856  65.267  19.0010  0.00  0.00     0.000 HD
BRANCH 45 58
ATOM     58  O4  BGC C   5       5.494  63.732  16.8700  0.00  0.00     0.000 O
BRANCH 58 62
ATOM     59  C1  BGC C   5       3.624  62.046  15.1340  0.00  0.00     0.000 C
ATOM     60  C2  BGC C   5       2.834  63.151  15.6320  0.00  0.00     0.000 C
ATOM     61  C3  BGC C   5       3.043  63.434  17.1170  0.00  0.00     0.000 C
ATOM     62  C4  BGC C   5       4.439  62.975  17.5140  0.00  0.00     0.000 C
ATOM     63  C5  BGC C   5       4.655  61.611  16.9020  0.00  0.00     0.000 C
ATOM     64  O5  BGC C   5       3.765  61.183  15.8730  0.00  0.00     0.000 O
ATOM     65   O  BGC C   5       3.487  60.396  18.6320  0.00  0.00     0.000 O
ATOM     67  HD  BGC C   5       4.247  60.689  18.3390  0.00  0.00     0.000 HD
ATOM     67   O  BGC C   5       3.487  60.396  18.6320  0.00  0.00     0.000 O
ATOM     69  HD  BGC C   5       4.247  60.689  18.3390  0.00  0.00     0.000 HD
ENDBRANCH 58 62
ENDBRANCH 45 58
ENDBRANCH 44 48
ENDBRANCH 31 44
ENDBRANCH 30 34
ENDBRANCH 17 30
ENDBRANCH 16 20
ENDBRANCH 1 16
TORSDOF 8
ENDMDL
MODEL 57
REMARK VINA RESULT:      -0.2     62.879     65.477
ROOT
ATOM      1  C1  BGC C   1      11.164  41.808  62.5270  0.00  0.00     0.000 C
ATOM      2  C2  BGC C   1      11.174  43.285  62.9190  0.00  0.00     0.000 C
ATOM      3  C3  BGC C   1       9.918  43.623  63.7140  0.00  0.00     0.000 C
ATOM      4  C4  BGC C   1       8.653  43.149  63.0190  0.00  0.00     0.000 C
ATOM      5  C5  BGC C   1       8.822  41.712  62.5360  0.00  0.00     0.000 C
ATOM      6  O5  BGC C   1      10.011  41.486  61.8480  0.00  0.00     0.000 O
ATOM      7   O  BGC C   1      12.323  43.506  63.7020  0.00  0.00     0.000 O
ATOM      9  HD  BGC C   1      11.855  44.110  63.2930  0.00  0.00     0.000 HD
ATOM      9   O  BGC C   1       9.906  45.038  63.9460  0.00  0.00     0.000 O
ATOM     11  HD  BGC C   1       9.438  45.641  63.5380  0.00  0.00     0.000 HD
ATOM     11   O  BGC C   1       7.599  43.249  63.9700  0.00  0.00     0.000 O
ATOM     13  HD  BGC C   1       7.131  43.853  63.5610  0.00  0.00     0.000 HD
ATOM     13   O  BGC C   1       7.716  42.128  60.3580  0.00  0.00     0.000 O
ATOM     15  HD  BGC C   1       7.248  42.732  59.9500  0.00  0.00     0.000 HD
ATOM     15   C  BGC C   1       7.644  41.378  61.6020  0.00  0.00     0.000 C
ENDROOT
BRANCH 1 16
ATOM     16  O4  BGC C   2      12.239  41.567  61.6500  0.00  0.00     0.000 O
BRANCH 16 20
ATOM     17  C1  BGC C   2      14.786  38.505  60.7480  0.00  0.00     0.000 C
ATOM     18  C2  BGC C   2      13.422  38.454  60.0780  0.00  0.00     0.000 C
ATOM     19  C3  BGC C   2      12.715  39.798  60.1910  0.00  0.00     0.000 C
ATOM     20  C4  BGC C   2      12.707  40.240  61.6160  0.00  0.00     0.000 C
ATOM     21  C5  BGC C   2      14.109  40.181  62.2150  0.00  0.00     0.000 C
ATOM     22  O5  BGC C   2      14.654  38.903  62.0830  0.00  0.00     0.000 O
ATOM     23   O  BGC C   2      13.596  38.094  58.6990  0.00  0.00     0.000 O
ATOM     25  HD  BGC C   2      13.063  38.560  58.2010  0.00  0.00     0.000 HD
ATOM     25   O  BGC C   2      11.379  39.663  59.7210  0.00  0.00     0.000 O
ATOM     27  HD  BGC C   2      10.846  40.130  59.2220  0.00  0.00     0.000 HD
ATOM     27   C  BGC C   2      14.197  40.603  63.6960  0.00  0.00     0.000 C
ATOM     28   O  BGC C   2      13.282  39.848  64.5080  0.00  0.00     0.000 O
ATOM     30  HD  BGC C   2      12.749  40.315  64.0090  0.00  0.00     0.000 HD
BRANCH 17 30
ATOM     30  O4  BGC C   3      15.367  37.219  60.7170  0.00  0.00     0.000 O
BRANCH 30 34
ATOM     31  C1  BGC C   3      18.956  35.410  60.2850  0.00  0.00     0.000 C
ATOM     32  C2  BGC C   3      18.618  35.896  61.7140  0.00  0.00     0.000 C
ATOM     33  C3  BGC C   3      17.170  36.222  61.8440  0.00  0.00     0.000 C
ATOM     34  C4  BGC C   3      16.786  37.173  60.7070  0.00  0.00     0.000 C
ATOM     35  C5  BGC C   3      17.259  36.699  59.3090  0.00  0.00     0.000 C
ATOM     36  O5  BGC C   3      18.632  36.399  59.3390  0.00  0.00     0.000 O
ATOM     37   O  BGC C   3      18.938  35.052  62.8040  0.00  0.00     0.000 O
ATOM     39  HD  BGC C   3      18.368  35.612  62.4710  0.00  0.00     0.000 HD
ATOM     39   O  BGC C   3      16.904  36.823  63.1450  0.00  0.00     0.000 O
ATOM     41  HD  BGC C   3      16.334  37.384  62.8120  0.00  0.00     0.000 HD
ATOM     41   C  BGC C   3      17.050  37.718  58.1660  0.00  0.00     0.000 C
ATOM     42   O  BGC C   3      17.819  38.967  58.2910  0.00  0.00     0.000 O
ATOM     44  HD  BGC C   3      17.249  39.528  57.9580  0.00  0.00     0.000 HD
BRANCH 31 44
ATOM     44  O4  BGC C   4      20.306  35.105  60.1690  0.00  0.00     0.000 O
BRANCH 44 48
ATOM     45  C1  BGC C   4      23.017  32.517  58.5220  0.00  0.00     0.000 C
ATOM     46  C2  BGC C   4      22.374  33.435  57.4340  0.00  0.00     0.000 C
ATOM     47  C3  BGC C   4      21.662  34.491  58.2900  0.00  0.00     0.000 C
ATOM     48  C4  BGC C   4      20.737  34.024  59.3970  0.00  0.00     0.000 C
ATOM     49  C5  BGC C   4      21.588  33.139  60.3210  0.00  0.00     0.000 C
ATOM     50  O5  BGC C   4      22.180  32.105  59.6130  0.00  0.00     0.000 O
ATOM     51   O  BGC C   4      23.201  34.180  56.3710  0.00  0.00     0.000 O
ATOM     53  HD  BGC C   4      22.712  34.735  55.9200  0.00  0.00     0.000 HD
ATOM     53   O  BGC C   4      20.738  35.076  57.2570  0.00  0.00     0.000 O
ATOM     55  HD  BGC C   4      20.249  35.631  56.8060  0.00  0.00     0.000 HD
ATOM     55   C  BGC C   4      20.743  32.474  61.3760  0.00  0.00     0.000 C
ATOM     56   O  BGC C   4      19.649  31.688  60.8900  0.00  0.00     0.000 O
ATOM     58  HD  BGC C   4      19.160  32.243  60.4390  0.00  0.00     0.000 HD
BRANCH 45 58
ATOM     58  O4  BGC C   5      23.526  31.335  57.9810  0.00  0.00     0.000 O
BRANCH 58 62
ATOM     59  C1  BGC C   5      26.146  31.953  56.5290  0.00  0.00     0.000 C
ATOM     60  C2  BGC C   5      25.943  30.525  56.4160  0.00  0.00     0.000 C
ATOM     61  C3  BGC C   5      25.506  29.862  57.7200  0.00  0.00     0.000 C
ATOM     62  C4  BGC C   5      24.771  30.888  58.5710  0.00  0.00     0.000 C
ATOM     63  C5  BGC C   5      25.578  32.165  58.5320  0.00  0.00     0.000 C
ATOM     64  O5  BGC C   5      26.583  32.299  57.5290  0.00  0.00     0.000 O
ATOM     65   O  BGC C   5      27.150  31.496  60.2400  0.00  0.00     0.000 O
ATOM     67  HD  BGC C   5      26.413  31.912  60.0550  0.00  0.00     0.000 HD
ATOM     67   O  BGC C   5      27.150  31.496  60.2400  0.00  0.00     0.000 O
ATOM     69  HD  BGC C   5      26.413  31.912  60.0550  0.00  0.00     0.000 HD
ENDBRANCH 58 62
ENDBRANCH 45 58
ENDBRANCH 44 48
ENDBRANCH 31 44
ENDBRANCH 30 34
ENDBRANCH 17 30
ENDBRANCH 16 20
ENDBRANCH 1 16
TORSDOF 8
ENDMDL
MODEL 58
REMARK VINA RESULT:      -0.2     56.186     64.949
ROOT
ATOM      1  C1  BGC C   1      61.971  47.336  31.8650  0.00  0.00     0.000 C
ATOM      2  C2  BGC C   1      62.959  47.715  32.9680  0.00  0.00     0.000 C
ATOM      3  C3  BGC C   1      62.724  49.155  33.4060  0.00  0.00     0.000 C
ATOM      4  C4  BGC C   1      62.674  50.114  32.2280  0.00  0.00     0.000 C
ATOM      5  C5  BGC C   1      61.779  49.552  31.1270  0.00  0.00     0.000 C
ATOM      6  O5  BGC C   1      62.042  48.221  30.8140  0.00  0.00     0.000 O
ATOM      7   O  BGC C   1      62.747  46.834  34.0460  0.00  0.00     0.000 O
ATOM      9  HD  BGC C   1      63.453  47.316  33.9060  0.00  0.00     0.000 HD
ATOM      9   O  BGC C   1      63.751  49.508  34.3430  0.00  0.00     0.000 O
ATOM     11  HD  BGC C   1      64.457  49.990  34.2030  0.00  0.00     0.000 HD
ATOM     11   O  BGC C   1      62.165  51.348  32.7230  0.00  0.00     0.000 O
ATOM     13  HD  BGC C   1      62.871  51.829  32.5840  0.00  0.00     0.000 HD
ATOM     13   O  BGC C   1      63.313  50.219  29.2990  0.00  0.00     0.000 O
ATOM     15  HD  BGC C   1      64.019  50.700  29.1600  0.00  0.00     0.000 HD
ATOM     15   C  BGC C   1      61.984  50.404  29.8610  0.00  0.00     0.000 C
ENDROOT
BRANCH 1 16
ATOM     16  O4  BGC C   2      62.324  46.069  31.3600  0.00  0.00     0.000 O
BRANCH 16 20
ATOM     17  C1  BGC C   2      60.447  42.814  29.7620  0.00  0.00     0.000 C
ATOM     18  C2  BGC C   2      60.725  43.959  28.8010  0.00  0.00     0.000 C
ATOM     19  C3  BGC C   2      61.729  44.934  29.4000  0.00  0.00     0.000 C
ATOM     20  C4  BGC C   2      61.278  45.342  30.7620  0.00  0.00     0.000 C
ATOM     21  C5  BGC C   2      60.952  44.123  31.6190  0.00  0.00     0.000 C
ATOM     22  O5  BGC C   2      60.005  43.311  30.9930  0.00  0.00     0.000 O
ATOM     23   O  BGC C   2      61.224  43.418  27.5690  0.00  0.00     0.000 O
ATOM     25  HD  BGC C   2      61.867  43.913  27.2650  0.00  0.00     0.000 HD
ATOM     25   O  BGC C   2      61.825  46.079  28.5610  0.00  0.00     0.000 O
ATOM     27  HD  BGC C   2      62.468  46.574  28.2580  0.00  0.00     0.000 HD
ATOM     27   C  BGC C   2      60.457  44.449  33.0440  0.00  0.00     0.000 C
ATOM     28   O  BGC C   2      59.332  45.343  33.0120  0.00  0.00     0.000 O
ATOM     30  HD  BGC C   2      59.975  45.839  32.7090  0.00  0.00     0.000 HD
BRANCH 17 30
ATOM     30  O4  BGC C   3      59.437  41.988  29.2230  0.00  0.00     0.000 O
BRANCH 30 34
ATOM     31  C1  BGC C   3      58.368  38.098  28.9740  0.00  0.00     0.000 C
ATOM     32  C2  BGC C   3      57.933  38.832  30.2650  0.00  0.00     0.000 C
ATOM     33  C3  BGC C   3      58.060  40.308  30.1140  0.00  0.00     0.000 C
ATOM     34  C4  BGC C   3      59.470  40.622  29.6100  0.00  0.00     0.000 C
ATOM     35  C5  BGC C   3      59.903  39.769  28.3900  0.00  0.00     0.000 C
ATOM     36  O5  BGC C   3      59.704  38.404  28.6590  0.00  0.00     0.000 O
ATOM     37   O  BGC C   3      56.633  38.590  30.7700  0.00  0.00     0.000 O
ATOM     39  HD  BGC C   3      57.257  39.176  30.6380  0.00  0.00     0.000 HD
ATOM     39   O  BGC C   3      57.796  40.969  31.3860  0.00  0.00     0.000 O
ATOM     41  HD  BGC C   3      58.419  41.556  31.2540  0.00  0.00     0.000 HD
ATOM     41   C  BGC C   3      61.382  39.929  27.9690  0.00  0.00     0.000 C
ATOM     42   O  BGC C   3      62.370  39.480  28.9650  0.00  0.00     0.000 O
ATOM     44  HD  BGC C   3      62.993  40.066  28.8330  0.00  0.00     0.000 HD
BRANCH 31 44
ATOM     44  O4  BGC C   4      58.247  36.722  29.1190  0.00  0.00     0.000 O
BRANCH 44 48
ATOM     45  C1  BGC C   4      57.192  33.244  27.2340  0.00  0.00     0.000 C
ATOM     46  C2  BGC C   4      58.537  33.809  26.6750  0.00  0.00     0.000 C
ATOM     47  C3  BGC C   4      58.880  34.892  27.7060  0.00  0.00     0.000 C
ATOM     48  C4  BGC C   4      57.822  35.920  28.0570  0.00  0.00     0.000 C
ATOM     49  C5  BGC C   4      56.608  35.127  28.5660  0.00  0.00     0.000 C
ATOM     50  O5  BGC C   4      56.193  34.196  27.6280  0.00  0.00     0.000 O
ATOM     51   O  BGC C   4      59.793  32.941  26.4770  0.00  0.00     0.000 O
ATOM     53  HD  BGC C   4      60.483  33.423  26.2730  0.00  0.00     0.000 HD
ATOM     53   O  BGC C   4      59.908  35.669  26.9290  0.00  0.00     0.000 O
ATOM     55  HD  BGC C   4      60.597  36.151  26.7240  0.00  0.00     0.000 HD
ATOM     55   C  BGC C   4      55.421  36.027  28.7950  0.00  0.00     0.000 C
ATOM     56   O  BGC C   4      55.006  36.804  27.6650  0.00  0.00     0.000 O
ATOM     58  HD  BGC C   4      55.695  37.286  27.4600  0.00  0.00     0.000 HD
BRANCH 45 58
ATOM     58  O4  BGC C   5      56.557  32.397  26.3230  0.00  0.00     0.000 O
BRANCH 58 62
ATOM     59  C1  BGC C   5      58.013  29.709  26.2820  0.00  0.00     0.000 C
ATOM     60  C2  BGC C   5      56.899  29.584  25.3680  0.00  0.00     0.000 C
ATOM     61  C3  BGC C   5      55.591  30.149  25.9150  0.00  0.00     0.000 C
ATOM     62  C4  BGC C   5      55.910  31.247  26.9200  0.00  0.00     0.000 C
ATOM     63  C5  BGC C   5      57.016  30.731  27.8110  0.00  0.00     0.000 C
ATOM     64  O5  BGC C   5      57.745  29.581  27.3880  0.00  0.00     0.000 O
ATOM     65   O  BGC C   5      55.563  29.466  29.2700  0.00  0.00     0.000 O
ATOM     67  HD  BGC C   5      55.976  30.214  29.1280  0.00  0.00     0.000 HD
ATOM     67   O  BGC C   5      55.563  29.466  29.2700  0.00  0.00     0.000 O
ATOM     69  HD  BGC C   5      55.976  30.214  29.1280  0.00  0.00     0.000 HD
ENDBRANCH 58 62
ENDBRANCH 45 58
ENDBRANCH 44 48
ENDBRANCH 31 44
ENDBRANCH 30 34
ENDBRANCH 17 30
ENDBRANCH 16 20
ENDBRANCH 1 16
TORSDOF 8
ENDMDL
MODEL 59
REMARK VINA RESULT:      -0.2     65.338     71.142
ROOT
ATOM      1  C1  BGC C   1      41.799  48.455  39.8340  0.00  0.00     0.000 C
ATOM      2  C2  BGC C   1      41.445  47.066  39.3040  0.00  0.00     0.000 C
ATOM      3  C3  BGC C   1      40.992  47.161  37.8520  0.00  0.00     0.000 C
ATOM      4  C4  BGC C   1      39.920  48.219  37.6520  0.00  0.00     0.000 C
ATOM      5  C5  BGC C   1      40.317  49.513  38.3580  0.00  0.00     0.000 C
ATOM      6  O5  BGC C   1      40.748  49.328  39.6690  0.00  0.00     0.000 O
ATOM      7   O  BGC C   1      42.601  46.268  39.4040  0.00  0.00     0.000 O
ATOM      9  HD  BGC C   1      41.787  45.985  39.3180  0.00  0.00     0.000 HD
ATOM      9   O  BGC C   1      40.548  45.862  37.4380  0.00  0.00     0.000 O
ATOM     11  HD  BGC C   1      39.734  45.579  37.3520  0.00  0.00     0.000 HD
ATOM     11   O  BGC C   1      39.796  48.420  36.2480  0.00  0.00     0.000 O
ATOM     13  HD  BGC C   1      38.982  48.137  36.1620  0.00  0.00     0.000 HD
ATOM     13   O  BGC C   1      38.039  49.937  39.2350  0.00  0.00     0.000 O
ATOM     15  HD  BGC C   1      37.225  49.654  39.1490  0.00  0.00     0.000 HD
ATOM     15   C  BGC C   1      39.092  50.447  38.3710  0.00  0.00     0.000 C
ENDROOT
BRANCH 1 16
ATOM     16  O4  BGC C   2      42.042  48.360  41.2180  0.00  0.00     0.000 O
BRANCH 16 20
ATOM     17  C1  BGC C   2      44.393  50.187  44.0130  0.00  0.00     0.000 C
ATOM     18  C2  BGC C   2      43.098  50.903  43.6630  0.00  0.00     0.000 C
ATOM     19  C3  BGC C   2      42.155  49.975  42.9110  0.00  0.00     0.000 C
ATOM     20  C4  BGC C   2      42.873  49.360  41.7570  0.00  0.00     0.000 C
ATOM     21  C5  BGC C   2      44.193  48.738  42.2020  0.00  0.00     0.000 C
ATOM     22  O5  BGC C   2      44.992  49.677  42.8560  0.00  0.00     0.000 O
ATOM     23   O  BGC C   2      42.484  51.368  44.8740  0.00  0.00     0.000 O
ATOM     25  HD  BGC C   2      41.627  51.249  44.8380  0.00  0.00     0.000 HD
ATOM     25   O  BGC C   2      41.040  50.724  42.4400  0.00  0.00     0.000 O
ATOM     27  HD  BGC C   2      40.183  50.605  42.4040  0.00  0.00     0.000 HD
ATOM     27   C  BGC C   2      45.018  48.092  41.0690  0.00  0.00     0.000 C
ATOM     28   O  BGC C   2      45.249  49.023  39.9990  0.00  0.00     0.000 O
ATOM     30  HD  BGC C   2      44.392  48.904  39.9620  0.00  0.00     0.000 HD
BRANCH 17 30
ATOM     30  O4  BGC C   3      45.284  51.102  44.6140  0.00  0.00     0.000 O
BRANCH 30 34
ATOM     31  C1  BGC C   3      48.096  51.300  47.5100  0.00  0.00     0.000 C
ATOM     32  C2  BGC C   3      48.584  50.783  46.1360  0.00  0.00     0.000 C
ATOM     33  C3  BGC C   3      47.588  51.072  45.0670  0.00  0.00     0.000 C
ATOM     34  C4  BGC C   3      46.222  50.556  45.5290  0.00  0.00     0.000 C
ATOM     35  C5  BGC C   3      45.837  51.001  46.9630  0.00  0.00     0.000 C
ATOM     36  O5  BGC C   3      46.875  50.695  47.8590  0.00  0.00     0.000 O
ATOM     37   O  BGC C   3      49.834  51.237  45.6520  0.00  0.00     0.000 O
ATOM     39  HD  BGC C   3      49.019  51.023  45.4520  0.00  0.00     0.000 HD
ATOM     39   O  BGC C   3      47.993  50.441  43.8170  0.00  0.00     0.000 O
ATOM     41  HD  BGC C   3      47.178  50.228  43.6160  0.00  0.00     0.000 HD
ATOM     41   C  BGC C   3      44.553  50.352  47.5290  0.00  0.00     0.000 C
ATOM     42   O  BGC C   3      44.619  48.893  47.7180  0.00  0.00     0.000 O
ATOM     44  HD  BGC C   3      43.804  48.680  47.5170  0.00  0.00     0.000 HD
BRANCH 31 44
ATOM     44  O4  BGC C   4      49.029  51.030  48.5040  0.00  0.00     0.000 O
BRANCH 44 48
ATOM     45  C1  BGC C   4      50.819  52.478  51.8880  0.00  0.00     0.000 C
ATOM     46  C2  BGC C   4      49.329  52.092  52.1540  0.00  0.00     0.000 C
ATOM     47  C3  BGC C   4      48.973  51.308  50.8840  0.00  0.00     0.000 C
ATOM     48  C4  BGC C   4      49.265  51.940  49.5370  0.00  0.00     0.000 C
ATOM     49  C5  BGC C   4      50.773  52.236  49.5210  0.00  0.00     0.000 C
ATOM     50  O5  BGC C   4      51.136  53.027  50.5990  0.00  0.00     0.000 O
ATOM     51   O  BGC C   4      48.886  51.246  53.3610  0.00  0.00     0.000 O
ATOM     53  HD  BGC C   4      48.051  51.021  53.3020  0.00  0.00     0.000 HD
ATOM     53   O  BGC C   4      47.472  51.328  50.9840  0.00  0.00     0.000 O
ATOM     55  HD  BGC C   4      46.638  51.104  50.9250  0.00  0.00     0.000 HD
ATOM     55   C  BGC C   4      51.167  53.019  48.2960  0.00  0.00     0.000 C
ATOM     56   O  BGC C   4      50.467  54.253  48.0980  0.00  0.00     0.000 O
ATOM     58  HD  BGC C   4      49.633  54.029  48.0390  0.00  0.00     0.000 HD
BRANCH 45 58
ATOM     58  O4  BGC C   5      51.295  53.411  52.8130  0.00  0.00     0.000 O
BRANCH 58 62
ATOM     59  C1  BGC C   5      51.827  51.994  55.4700  0.00  0.00     0.000 C
ATOM     60  C2  BGC C   5      52.211  53.376  55.6590  0.00  0.00     0.000 C
ATOM     61  C3  BGC C   5      53.028  53.949  54.5040  0.00  0.00     0.000 C
ATOM     62  C4  BGC C   5      52.667  53.203  53.2280  0.00  0.00     0.000 C
ATOM     63  C5  BGC C   5      52.641  51.729  53.5610  0.00  0.00     0.000 C
ATOM     64  O5  BGC C   5      52.605  51.347  54.9340  0.00  0.00     0.000 O
ATOM     65   O  BGC C   5      55.029  51.410  53.3740  0.00  0.00     0.000 O
ATOM     67  HD  BGC C   5      54.259  51.372  52.9790  0.00  0.00     0.000 HD
ATOM     67   O  BGC C   5      55.029  51.410  53.3740  0.00  0.00     0.000 O
ATOM     69  HD  BGC C   5      54.259  51.372  52.9790  0.00  0.00     0.000 HD
ENDBRANCH 58 62
ENDBRANCH 45 58
ENDBRANCH 44 48
ENDBRANCH 31 44
ENDBRANCH 30 34
ENDBRANCH 17 30
ENDBRANCH 16 20
ENDBRANCH 1 16
TORSDOF 8
ENDMDL
MODEL 60
REMARK VINA RESULT:      -0.2     65.175     71.921
ROOT
ATOM      1  C1  BGC C   1      52.774  69.681   3.9830  0.00  0.00     0.000 C
ATOM      2  C2  BGC C   1      52.750  70.416   2.6430  0.00  0.00     0.000 C
ATOM      3  C3  BGC C   1      54.168  70.576   2.1090  0.00  0.00     0.000 C
ATOM      4  C4  BGC C   1      55.110  71.162   3.1480  0.00  0.00     0.000 C
ATOM      5  C5  BGC C   1      54.931  70.449   4.4850  0.00  0.00     0.000 C
ATOM      6  O5  BGC C   1      53.602  70.318   4.8790  0.00  0.00     0.000 O
ATOM      7   O  BGC C   1      51.977  69.646   1.7530  0.00  0.00     0.000 O
ATOM      9  HD  BGC C   1      52.178  70.483   1.6660  0.00  0.00     0.000 HD
ATOM      9   O  BGC C   1      54.109  71.381   0.9240  0.00  0.00     0.000 O
ATOM     11  HD  BGC C   1      54.311  72.219   0.8370  0.00  0.00     0.000 HD
ATOM     11   O  BGC C   1      56.432  70.990   2.6490  0.00  0.00     0.000 O
ATOM     13  HD  BGC C   1      56.633  71.828   2.5620  0.00  0.00     0.000 HD
ATOM     13   O  BGC C   1      55.052  72.537   5.8130  0.00  0.00     0.000 O
ATOM     15  HD  BGC C   1      55.253  73.375   5.7260  0.00  0.00     0.000 HD
ATOM     15   C  BGC C   1      55.685  71.252   5.5610  0.00  0.00     0.000 C
ENDROOT
BRANCH 1 16
ATOM     16  O4  BGC C   2      51.478  69.704   4.5320  0.00  0.00     0.000 O
BRANCH 16 20
ATOM     17  C1  BGC C   2      49.145  67.320   6.8880  0.00  0.00     0.000 C
ATOM     18  C2  BGC C   2      50.139  68.209   7.6200  0.00  0.00     0.000 C
ATOM     19  C3  BGC C   2      50.677  69.291   6.6940  0.00  0.00     0.000 C
ATOM     20  C4  BGC C   2      51.186  68.667   5.4390  0.00  0.00     0.000 C
ATOM     21  C5  BGC C   2      50.143  67.737   4.8270  0.00  0.00     0.000 C
ATOM     22  O5  BGC C   2      49.737  66.769   5.7470  0.00  0.00     0.000 O
ATOM     23   O  BGC C   2      49.486  68.798   8.7540  0.00  0.00     0.000 O
ATOM     25  HD  BGC C   2      49.727  69.626   8.8390  0.00  0.00     0.000 HD
ATOM     25   O  BGC C   2      51.733  69.983   7.3500  0.00  0.00     0.000 O
ATOM     27  HD  BGC C   2      51.974  70.811   7.4350  0.00  0.00     0.000 HD
ATOM     27   C  BGC C   2      50.589  67.029   3.5310  0.00  0.00     0.000 C
ATOM     28   O  BGC C   2      51.825  66.322   3.7230  0.00  0.00     0.000 O
ATOM     30  HD  BGC C   2      52.067  67.150   3.8080  0.00  0.00     0.000 HD
BRANCH 17 30
ATOM     30  O4  BGC C   3      48.746  66.268   7.7410  0.00  0.00     0.000 O
BRANCH 30 34
ATOM     31  C1  BGC C   3      45.500  64.050   8.6780  0.00  0.00     0.000 C
ATOM     32  C2  BGC C   3      46.309  63.569   7.4490  0.00  0.00     0.000 C
ATOM     33  C3  BGC C   3      47.646  64.222   7.3960  0.00  0.00     0.000 C
ATOM     34  C4  BGC C   3      47.450  65.736   7.5160  0.00  0.00     0.000 C
ATOM     35  C5  BGC C   3      46.528  66.155   8.6900  0.00  0.00     0.000 C
ATOM     36  O5  BGC C   3      45.318  65.443   8.6330  0.00  0.00     0.000 O
ATOM     37   O  BGC C   3      46.534  62.181   7.2940  0.00  0.00     0.000 O
ATOM     39  HD  BGC C   3      46.863  62.977   7.2080  0.00  0.00     0.000 HD
ATOM     39   O  BGC C   3      48.327  63.877   6.1540  0.00  0.00     0.000 O
ATOM     41  HD  BGC C   3      48.656  64.674   6.0680  0.00  0.00     0.000 HD
ATOM     41   C  BGC C   3      46.161  67.656   8.7310  0.00  0.00     0.000 C
ATOM     42   O  BGC C   3      45.365  68.139   7.5900  0.00  0.00     0.000 O
ATOM     44  HD  BGC C   3      45.694  68.935   7.5050  0.00  0.00     0.000 HD
BRANCH 31 44
ATOM     44  O4  BGC C   4      44.254  63.437   8.7240  0.00  0.00     0.000 O
BRANCH 44 48
ATOM     45  C1  BGC C   4      41.428  61.797  11.1900  0.00  0.00     0.000 C
ATOM     46  C2  BGC C   4      41.490  63.350  11.3500  0.00  0.00     0.000 C
ATOM     47  C3  BGC C   4      42.354  63.758  10.1500  0.00  0.00     0.000 C
ATOM     48  C4  BGC C   4      43.683  63.058   9.9410  0.00  0.00     0.000 C
ATOM     49  C5  BGC C   4      43.363  61.559   9.8250  0.00  0.00     0.000 C
ATOM     50  O5  BGC C   4      42.664  61.112  10.9350  0.00  0.00     0.000 O
ATOM     51   O  BGC C   4      40.237  64.243  11.3450  0.00  0.00     0.000 O
ATOM     53  HD  BGC C   4      40.446  65.083  11.3260  0.00  0.00     0.000 HD
ATOM     53   O  BGC C   4      42.733  65.152  10.5690  0.00  0.00     0.000 O
ATOM     55  HD  BGC C   4      42.942  65.992  10.5500  0.00  0.00     0.000 HD
ATOM     55   C  BGC C   4      44.621  60.731   9.7800  0.00  0.00     0.000 C
ATOM     56   O  BGC C   4      45.521  60.911  10.8790  0.00  0.00     0.000 O
ATOM     58  HD  BGC C   4      45.731  61.751  10.8590  0.00  0.00     0.000 HD
BRANCH 45 58
ATOM     58  O4  BGC C   5      40.886  61.173  12.3160  0.00  0.00     0.000 O
BRANCH 58 62
ATOM     59  C1  BGC C   5      37.856  61.591  12.3220  0.00  0.00     0.000 C
ATOM     60  C2  BGC C   5      38.159  60.779  13.4800  0.00  0.00     0.000 C
ATOM     61  C3  BGC C   5      39.140  59.644  13.1940  0.00  0.00     0.000 C
ATOM     62  C4  BGC C   5      40.027  60.043  12.0230  0.00  0.00     0.000 C
ATOM     63  C5  BGC C   5      39.129  60.637  10.9630  0.00  0.00     0.000 C
ATOM     64  O5  BGC C   5      37.805  61.018  11.3320  0.00  0.00     0.000 O
ATOM     65   O  BGC C   5      38.429  58.517  10.0400  0.00  0.00     0.000 O
ATOM     67  HD  BGC C   5      38.985  59.180   9.9950  0.00  0.00     0.000 HD
ATOM     67   O  BGC C   5      38.429  58.517  10.0400  0.00  0.00     0.000 O
ATOM     69  HD  BGC C   5      38.985  59.180   9.9950  0.00  0.00     0.000 HD
ENDBRANCH 58 62
ENDBRANCH 45 58
ENDBRANCH 44 48
ENDBRANCH 31 44
ENDBRANCH 30 34
ENDBRANCH 17 30
ENDBRANCH 16 20
ENDBRANCH 1 16
TORSDOF 8
ENDMDL
MODEL 61
REMARK VINA RESULT:      -0.2     91.634     93.940
ROOT
ATOM      1  C1  BGC C   1      42.149  65.080  67.8160  0.00  0.00     0.000 C
ATOM      2  C2  BGC C   1      41.172  65.397  68.9470  0.00  0.00     0.000 C
ATOM      3  C3  BGC C   1      39.741  65.372  68.4240  0.00  0.00     0.000 C
ATOM      4  C4  BGC C   1      39.572  66.216  67.1710  0.00  0.00     0.000 C
ATOM      5  C5  BGC C   1      40.695  65.921  66.1810  0.00  0.00     0.000 C
ATOM      6  O5  BGC C   1      41.965  65.932  66.7520  0.00  0.00     0.000 O
ATOM      7   O  BGC C   1      41.345  64.418  69.9430  0.00  0.00     0.000 O
ATOM      9  HD  BGC C   1      40.969  65.191  70.0430  0.00  0.00     0.000 HD
ATOM      9   O  BGC C   1      38.873  65.802  69.4810  0.00  0.00     0.000 O
ATOM     11  HD  BGC C   1      38.497  66.576  69.5810  0.00  0.00     0.000 HD
ATOM     11   O  BGC C   1      38.303  65.883  66.6190  0.00  0.00     0.000 O
ATOM     13  HD  BGC C   1      37.927  66.657  66.7190  0.00  0.00     0.000 HD
ATOM     13   O  BGC C   1      41.018  68.300  65.5700  0.00  0.00     0.000 O
ATOM     15  HD  BGC C   1      40.642  69.074  65.6700  0.00  0.00     0.000 HD
ATOM     15   C  BGC C   1      40.647  66.986  65.0700  0.00  0.00     0.000 C
ENDROOT
BRANCH 1 16
ATOM     16  O4  BGC C   2      43.461  65.282  68.2840  0.00  0.00     0.000 O
BRANCH 16 20
ATOM     17  C1  BGC C   2      47.180  63.720  67.6470  0.00  0.00     0.000 C
ATOM     18  C2  BGC C   2      46.717  64.764  66.6440  0.00  0.00     0.000 C
ATOM     19  C3  BGC C   2      45.509  65.524  67.1730  0.00  0.00     0.000 C
ATOM     20  C4  BGC C   2      44.463  64.556  67.6130  0.00  0.00     0.000 C
ATOM     21  C5  BGC C   2      45.047  63.508  68.5560  0.00  0.00     0.000 C
ATOM     22  O5  BGC C   2      46.129  62.853  67.9640  0.00  0.00     0.000 O
ATOM     23   O  BGC C   2      47.801  65.666  66.3790  0.00  0.00     0.000 O
ATOM     25  HD  BGC C   2      47.506  66.479  66.3270  0.00  0.00     0.000 HD
ATOM     25   O  BGC C   2      44.992  66.357  66.1430  0.00  0.00     0.000 O
ATOM     27  HD  BGC C   2      44.697  67.169  66.0900  0.00  0.00     0.000 HD
ATOM     27   C  BGC C   2      44.040  62.449  69.0490  0.00  0.00     0.000 C
ATOM     28   O  BGC C   2      43.379  61.805  67.9460  0.00  0.00     0.000 O
ATOM     30  HD  BGC C   2      43.084  62.618  67.8940  0.00  0.00     0.000 HD
BRANCH 17 30
ATOM     30  O4  BGC C   3      48.231  62.965  67.0830  0.00  0.00     0.000 O
BRANCH 30 34
ATOM     31  C1  BGC C   3      51.703  61.168  68.1080  0.00  0.00     0.000 C
ATOM     32  C2  BGC C   3      50.420  60.340  68.3580  0.00  0.00     0.000 C
ATOM     33  C3  BGC C   3      49.253  60.926  67.6430  0.00  0.00     0.000 C
ATOM     34  C4  BGC C   3      49.168  62.414  67.9960  0.00  0.00     0.000 C
ATOM     35  C5  BGC C   3      50.513  63.169  67.8470  0.00  0.00     0.000 C
ATOM     36  O5  BGC C   3      51.528  62.493  68.5450  0.00  0.00     0.000 O
ATOM     37   O  BGC C   3      50.436  58.962  68.0370  0.00  0.00     0.000 O
ATOM     39  HD  BGC C   3      49.974  59.694  68.0430  0.00  0.00     0.000 HD
ATOM     39   O  BGC C   3      48.029  60.226  68.0160  0.00  0.00     0.000 O
ATOM     41  HD  BGC C   3      47.567  60.959  68.0220  0.00  0.00     0.000 HD
ATOM     41   C  BGC C   3      50.508  64.625  68.3680  0.00  0.00     0.000 C
ATOM     42   O  BGC C   3      50.285  64.773  69.8160  0.00  0.00     0.000 O
ATOM     44  HD  BGC C   3      49.823  65.505  69.8220  0.00  0.00     0.000 HD
BRANCH 31 44
ATOM     44  O4  BGC C   4      52.789  60.617  68.7750  0.00  0.00     0.000 O
BRANCH 44 48
ATOM     45  C1  BGC C   4      56.795  59.805  68.5390  0.00  0.00     0.000 C
ATOM     46  C2  BGC C   4      56.533  61.337  68.7000  0.00  0.00     0.000 C
ATOM     47  C3  BGC C   4      55.046  61.368  69.0740  0.00  0.00     0.000 C
ATOM     48  C4  BGC C   4      54.062  60.614  68.2010  0.00  0.00     0.000 C
ATOM     49  C5  BGC C   4      54.534  59.151  68.1900  0.00  0.00     0.000 C
ATOM     50  O5  BGC C   4      55.848  59.055  67.7630  0.00  0.00     0.000 O
ATOM     51   O  BGC C   4      57.286  62.213  69.7170  0.00  0.00     0.000 O
ATOM     53  HD  BGC C   4      56.947  63.009  69.7640  0.00  0.00     0.000 HD
ATOM     53   O  BGC C   4      54.744  62.817  68.8060  0.00  0.00     0.000 O
ATOM     55  HD  BGC C   4      54.404  63.612  68.8530  0.00  0.00     0.000 HD
ATOM     55   C  BGC C   4      53.732  58.323  67.2200  0.00  0.00     0.000 C
ATOM     56   O  BGC C   4      53.715  58.796  65.8680  0.00  0.00     0.000 O
ATOM     58  HD  BGC C   4      53.375  59.591  65.9150  0.00  0.00     0.000 HD
BRANCH 45 58
ATOM     58  O4  BGC C   5      58.038  59.541  67.9600  0.00  0.00     0.000 O
BRANCH 58 62
ATOM     59  C1  BGC C   5      60.224  59.997  70.0500  0.00  0.00     0.000 C
ATOM     60  C2  BGC C   5      60.894  59.547  68.8490  0.00  0.00     0.000 C
ATOM     61  C3  BGC C   5      60.210  58.361  68.1730  0.00  0.00     0.000 C
ATOM     62  C4  BGC C   5      58.727  58.390  68.5100  0.00  0.00     0.000 C
ATOM     63  C5  BGC C   5      58.608  58.670  69.9900  0.00  0.00     0.000 C
ATOM     64  O5  BGC C   5      59.754  59.164  70.6790  0.00  0.00     0.000 O
ATOM     65   O  BGC C   5      58.980  56.386  70.6850  0.00  0.00     0.000 O
ATOM     67  HD  BGC C   5      58.401  56.998  70.4850  0.00  0.00     0.000 HD
ATOM     67   O  BGC C   5      58.980  56.386  70.6850  0.00  0.00     0.000 O
ATOM     69  HD  BGC C   5      58.401  56.998  70.4850  0.00  0.00     0.000 HD
ENDBRANCH 58 62
ENDBRANCH 45 58
ENDBRANCH 44 48
ENDBRANCH 31 44
ENDBRANCH 30 34
ENDBRANCH 17 30
ENDBRANCH 16 20
ENDBRANCH 1 16
TORSDOF 8
ENDMDL
MODEL 62
REMARK VINA RESULT:      -0.2     51.179     53.198
ROOT
ATOM      1  C1  BGC C   1      30.088  24.644  50.9430  0.00  0.00     0.000 C
ATOM      2  C2  BGC C   1      28.687  24.090  50.6850  0.00  0.00     0.000 C
ATOM      3  C3  BGC C   1      27.640  25.152  51.0000  0.00  0.00     0.000 C
ATOM      4  C4  BGC C   1      27.845  25.773  52.3720  0.00  0.00     0.000 C
ATOM      5  C5  BGC C   1      29.312  26.142  52.5700  0.00  0.00     0.000 C
ATOM      6  O5  BGC C   1      30.199  25.126  52.2270  0.00  0.00     0.000 O
ATOM      7   O  BGC C   1      28.620  23.725  49.3270  0.00  0.00     0.000 O
ATOM      9  HD  BGC C   1      28.092  23.456  49.9580  0.00  0.00     0.000 HD
ATOM      9   O  BGC C   1      26.344  24.551  50.8710  0.00  0.00     0.000 O
ATOM     11  HD  BGC C   1      25.816  24.281  51.5020  0.00  0.00     0.000 HD
ATOM     11   O  BGC C   1      27.014  26.927  52.4290  0.00  0.00     0.000 O
ATOM     13  HD  BGC C   1      26.485  26.658  53.0610  0.00  0.00     0.000 HD
ATOM     13   O  BGC C   1      29.382  25.328  54.9090  0.00  0.00     0.000 O
ATOM     15  HD  BGC C   1      28.853  25.059  55.5400  0.00  0.00     0.000 HD
ATOM     15   C  BGC C   1      29.521  26.497  54.0540  0.00  0.00     0.000 C
ENDROOT
BRANCH 1 16
ATOM     16  O4  BGC C   2      31.018  23.595  50.8140  0.00  0.00     0.000 O
BRANCH 16 20
ATOM     17  C1  BGC C   2      34.892  23.110  49.6190  0.00  0.00     0.000 C
ATOM     18  C2  BGC C   2      34.692  23.583  51.0510  0.00  0.00     0.000 C
ATOM     19  C3  BGC C   2      33.250  23.378  51.4910  0.00  0.00     0.000 C
ATOM     20  C4  BGC C   2      32.330  23.985  50.4850  0.00  0.00     0.000 C
ATOM     21  C5  BGC C   2      32.664  23.504  49.0760  0.00  0.00     0.000 C
ATOM     22  O5  BGC C   2      33.999  23.763  48.7640  0.00  0.00     0.000 O
ATOM     23   O  BGC C   2      35.587  22.858  51.9080  0.00  0.00     0.000 O
ATOM     25  HD  BGC C   2      35.186  22.648  52.6460  0.00  0.00     0.000 HD
ATOM     25   O  BGC C   2      33.055  23.996  52.7570  0.00  0.00     0.000 O
ATOM     27  HD  BGC C   2      32.654  23.786  53.4950  0.00  0.00     0.000 HD
ATOM     27   C  BGC C   2      31.774  24.096  47.9640  0.00  0.00     0.000 C
ATOM     28   O  BGC C   2      31.773  25.532  48.0070  0.00  0.00     0.000 O
ATOM     30  HD  BGC C   2      31.372  25.323  48.7450  0.00  0.00     0.000 HD
BRANCH 17 30
ATOM     30  O4  BGC C   3      36.209  23.410  49.2090  0.00  0.00     0.000 O
BRANCH 30 34
ATOM     31  C1  BGC C   3      39.220  21.899  46.9760  0.00  0.00     0.000 C
ATOM     32  C2  BGC C   3      38.141  22.690  46.1990  0.00  0.00     0.000 C
ATOM     33  C3  BGC C   3      37.287  23.486  47.1240  0.00  0.00     0.000 C
ATOM     34  C4  BGC C   3      36.770  22.555  48.2240  0.00  0.00     0.000 C
ATOM     35  C5  BGC C   3      37.876  21.693  48.8840  0.00  0.00     0.000 C
ATOM     36  O5  BGC C   3      38.620  21.023  47.8980  0.00  0.00     0.000 O
ATOM     37   O  BGC C   3      38.561  23.577  45.1790  0.00  0.00     0.000 O
ATOM     39  HD  BGC C   3      38.004  23.437  45.8270  0.00  0.00     0.000 HD
ATOM     39   O  BGC C   3      36.184  24.097  46.3920  0.00  0.00     0.000 O
ATOM     41  HD  BGC C   3      35.626  23.958  47.0390  0.00  0.00     0.000 HD
ATOM     41   C  BGC C   3      37.367  20.614  49.8690  0.00  0.00     0.000 C
ATOM     42   O  BGC C   3      36.538  19.557  49.2660  0.00  0.00     0.000 O
ATOM     44  HD  BGC C   3      35.980  19.418  49.9140  0.00  0.00     0.000 HD
BRANCH 31 44
ATOM     44  O4  BGC C   4      40.015  21.160  46.1100  0.00  0.00     0.000 O
BRANCH 44 48
ATOM     45  C1  BGC C   4      43.829  19.886  45.3410  0.00  0.00     0.000 C
ATOM     46  C2  BGC C   4      43.227  19.160  46.5870  0.00  0.00     0.000 C
ATOM     47  C3  BGC C   4      41.745  19.545  46.4930  0.00  0.00     0.000 C
ATOM     48  C4  BGC C   4      41.385  21.010  46.3390  0.00  0.00     0.000 C
ATOM     49  C5  BGC C   4      42.097  21.495  45.0660  0.00  0.00     0.000 C
ATOM     50  O5  BGC C   4      43.460  21.259  45.1390  0.00  0.00     0.000 O
ATOM     51   O  BGC C   4      43.299  17.635  46.7830  0.00  0.00     0.000 O
ATOM     53  HD  BGC C   4      42.821  17.379  47.4580  0.00  0.00     0.000 HD
ATOM     53   O  BGC C   4      41.302  19.200  47.8880  0.00  0.00     0.000 O
ATOM     55  HD  BGC C   4      40.824  18.944  48.5630  0.00  0.00     0.000 HD
ATOM     55   C  BGC C   4      41.953  22.984  44.8900  0.00  0.00     0.000 C
ATOM     56   O  BGC C   4      42.407  23.785  45.9870  0.00  0.00     0.000 O
ATOM     58  HD  BGC C   4      41.929  23.529  46.6620  0.00  0.00     0.000 HD
BRANCH 45 58
ATOM     58  O4  BGC C   5      45.226  19.877  45.3500  0.00  0.00     0.000 O
BRANCH 58 62
ATOM     59  C1  BGC C   5      46.207  17.088  44.5690  0.00  0.00     0.000 C
ATOM     60  C2  BGC C   5      47.390  17.897  44.7640  0.00  0.00     0.000 C
ATOM     61  C3  BGC C   5      47.299  19.280  44.1240  0.00  0.00     0.000 C
ATOM     62  C4  BGC C   5      45.836  19.693  44.0490  0.00  0.00     0.000 C
ATOM     63  C5  BGC C   5      45.059  18.502  43.5380  0.00  0.00     0.000 C
ATOM     64  O5  BGC C   5      45.692  17.224  43.5550  0.00  0.00     0.000 O
ATOM     65   O  BGC C   5      45.553  18.889  41.2050  0.00  0.00     0.000 O
ATOM     67  HD  BGC C   5      45.001  19.015  41.8600  0.00  0.00     0.000 HD
ATOM     67   O  BGC C   5      45.553  18.889  41.2050  0.00  0.00     0.000 O
ATOM     69  HD  BGC C   5      45.001  19.015  41.8600  0.00  0.00     0.000 HD
ENDBRANCH 58 62
ENDBRANCH 45 58
ENDBRANCH 44 48
ENDBRANCH 31 44
ENDBRANCH 30 34
ENDBRANCH 17 30
ENDBRANCH 16 20
ENDBRANCH 1 16
TORSDOF 8
ENDMDL
MODEL 63
REMARK VINA RESULT:      -0.2     51.869     60.301
ROOT
ATOM      1  C1  BGC C   1      67.741  23.349  34.3150  0.00  0.00     0.000 C
ATOM      2  C2  BGC C   1      68.202  24.806  34.2750  0.00  0.00     0.000 C
ATOM      3  C3  BGC C   1      69.006  25.134  35.5270  0.00  0.00     0.000 C
ATOM      4  C4  BGC C   1      68.283  24.722  36.7990  0.00  0.00     0.000 C
ATOM      5  C5  BGC C   1      67.734  23.305  36.6590  0.00  0.00     0.000 C
ATOM      6  O5  BGC C   1      67.042  23.086  35.4710  0.00  0.00     0.000 O
ATOM      7   O  BGC C   1      69.000  24.965  33.1260  0.00  0.00     0.000 O
ATOM      9  HD  BGC C   1      68.618  25.597  33.5780  0.00  0.00     0.000 HD
ATOM      9   O  BGC C   1      69.304  26.537  35.5100  0.00  0.00     0.000 O
ATOM     11  HD  BGC C   1      68.921  27.169  35.9610  0.00  0.00     0.000 HD
ATOM     11   O  BGC C   1      69.232  24.802  37.8560  0.00  0.00     0.000 O
ATOM     13  HD  BGC C   1      68.850  25.434  38.3080  0.00  0.00     0.000 HD
ATOM     13   O  BGC C   1      65.573  23.848  37.7430  0.00  0.00     0.000 O
ATOM     15  HD  BGC C   1      65.191  24.481  38.1950  0.00  0.00     0.000 HD
ATOM     15   C  BGC C   1      66.780  23.042  37.8390  0.00  0.00     0.000 C
ENDROOT
BRANCH 1 16
ATOM     16  O4  BGC C   2      66.859  23.126  33.2410  0.00  0.00     0.000 O
BRANCH 16 20
ATOM     17  C1  BGC C   2      65.827  20.053  30.7570  0.00  0.00     0.000 C
ATOM     18  C2  BGC C   2      65.148  20.065  32.1180  0.00  0.00     0.000 C
ATOM     19  C3  BGC C   2      65.321  21.417  32.7950  0.00  0.00     0.000 C
ATOM     20  C4  BGC C   2      66.764  21.792  32.8010  0.00  0.00     0.000 C
ATOM     21  C5  BGC C   2      67.367  21.673  31.4050  0.00  0.00     0.000 C
ATOM     22  O5  BGC C   2      67.178  20.391  30.8870  0.00  0.00     0.000 O
ATOM     23   O  BGC C   2      63.755  19.765  31.9430  0.00  0.00     0.000 O
ATOM     25  HD  BGC C   2      63.276  20.266  32.4620  0.00  0.00     0.000 HD
ATOM     25   O  BGC C   2      64.839  21.335  34.1310  0.00  0.00     0.000 O
ATOM     27  HD  BGC C   2      64.360  21.835  34.6510  0.00  0.00     0.000 HD
ATOM     27   C  BGC C   2      68.867  22.024  31.3170  0.00  0.00     0.000 C
ATOM     28   O  BGC C   2      69.638  21.253  32.2530  0.00  0.00     0.000 O
ATOM     30  HD  BGC C   2      69.159  21.754  32.7720  0.00  0.00     0.000 HD
BRANCH 17 30
ATOM     30  O4  BGC C   3      65.739  18.758  30.2040  0.00  0.00     0.000 O
BRANCH 30 34
ATOM     31  C1  BGC C   3      65.240  16.891  26.6530  0.00  0.00     0.000 C
ATOM     32  C2  BGC C   3      66.689  17.316  26.9900  0.00  0.00     0.000 C
ATOM     33  C3  BGC C   3      66.826  17.668  28.4300  0.00  0.00     0.000 C
ATOM     34  C4  BGC C   3      65.734  18.680  28.7860  0.00  0.00     0.000 C
ATOM     35  C5  BGC C   3      64.317  18.262  28.3150  0.00  0.00     0.000 C
ATOM     36  O5  BGC C   3      64.340  17.931  26.9490  0.00  0.00     0.000 O
ATOM     37   O  BGC C   3      67.739  16.414  26.6950  0.00  0.00     0.000 O
ATOM     39  HD  BGC C   3      67.430  17.002  27.2500  0.00  0.00     0.000 HD
ATOM     39   O  BGC C   3      68.153  18.213  28.6920  0.00  0.00     0.000 O
ATOM     41  HD  BGC C   3      67.844  18.801  29.2470  0.00  0.00     0.000 HD
ATOM     41   C  BGC C   3      63.222  19.339  28.4940  0.00  0.00     0.000 C
ATOM     42   O  BGC C   3      63.411  20.564  27.6980  0.00  0.00     0.000 O
ATOM     44  HD  BGC C   3      63.102  21.152  28.2540  0.00  0.00     0.000 HD
BRANCH 31 44
ATOM     44  O4  BGC C   4      65.116  16.562  25.3100  0.00  0.00     0.000 O
BRANCH 44 48
ATOM     45  C1  BGC C   4      63.363  13.995  22.6460  0.00  0.00     0.000 C
ATOM     46  C2  BGC C   4      62.317  14.978  23.2610  0.00  0.00     0.000 C
ATOM     47  C3  BGC C   4      63.218  16.008  23.9550  0.00  0.00     0.000 C
ATOM     48  C4  BGC C   4      64.296  15.509  24.8980  0.00  0.00     0.000 C
ATOM     49  C5  BGC C   4      65.181  14.562  24.0730  0.00  0.00     0.000 C
ATOM     50  O5  BGC C   4      64.429  13.550  23.5000  0.00  0.00     0.000 O
ATOM     51   O  BGC C   4      61.295  15.754  22.4100  0.00  0.00     0.000 O
ATOM     53  HD  BGC C   4      60.868  16.340  22.8830  0.00  0.00     0.000 HD
ATOM     53   O  BGC C   4      62.210  16.662  24.8590  0.00  0.00     0.000 O
ATOM     55  HD  BGC C   4      61.783  17.249  25.3320  0.00  0.00     0.000 HD
ATOM     55   C  BGC C   4      66.199  13.867  24.9400  0.00  0.00     0.000 C
ATOM     56   O  BGC C   4      65.669  13.130  26.0480  0.00  0.00     0.000 O
ATOM     58  HD  BGC C   4      65.242  13.717  26.5210  0.00  0.00     0.000 HD
BRANCH 45 58
ATOM     58  O4  BGC C   5      62.768  12.828  22.1600  0.00  0.00     0.000 O
BRANCH 58 62
ATOM     59  C1  BGC C   5      61.363  13.455  19.5170  0.00  0.00     0.000 C
ATOM     60  C2  BGC C   5      61.180  12.040  19.7520  0.00  0.00     0.000 C
ATOM     61  C3  BGC C   5      62.449  11.326  20.2120  0.00  0.00     0.000 C
ATOM     62  C4  BGC C   5      63.344  12.325  20.9290  0.00  0.00     0.000 C
ATOM     63  C5  BGC C   5      63.370  13.584  20.0940  0.00  0.00     0.000 C
ATOM     64  O5  BGC C   5      62.381  13.743  19.0790  0.00  0.00     0.000 O
ATOM     65   O  BGC C   5      65.053  12.800  18.5490  0.00  0.00     0.000 O
ATOM     67  HD  BGC C   5      64.884  13.241  19.2750  0.00  0.00     0.000 HD
ATOM     67   O  BGC C   5      65.053  12.800  18.5490  0.00  0.00     0.000 O
ATOM     69  HD  BGC C   5      64.884  13.241  19.2750  0.00  0.00     0.000 HD
ENDBRANCH 58 62
ENDBRANCH 45 58
ENDBRANCH 44 48
ENDBRANCH 31 44
ENDBRANCH 30 34
ENDBRANCH 17 30
ENDBRANCH 16 20
ENDBRANCH 1 16
TORSDOF 8
ENDMDL
MODEL 64
REMARK VINA RESULT:      -0.2     76.989     82.600
ROOT
ATOM      1  C1  BGC C   1      67.369  56.175  44.0790  0.00  0.00     0.000 C
ATOM      2  C2  BGC C   1      66.799  55.100  45.0030  0.00  0.00     0.000 C
ATOM      3  C3  BGC C   1      66.905  55.550  46.4550  0.00  0.00     0.000 C
ATOM      4  C4  BGC C   1      68.304  56.027  46.8080  0.00  0.00     0.000 C
ATOM      5  C5  BGC C   1      68.826  56.974  45.7320  0.00  0.00     0.000 C
ATOM      6  O5  BGC C   1      68.659  56.497  44.4350  0.00  0.00     0.000 O
ATOM      7   O  BGC C   1      65.450  54.909  44.6470  0.00  0.00     0.000 O
ATOM      9  HD  BGC C   1      65.944  54.362  45.1020  0.00  0.00     0.000 HD
ATOM      9   O  BGC C   1      66.482  54.463  47.2900  0.00  0.00     0.000 O
ATOM     11  HD  BGC C   1      66.976  53.916  47.7440  0.00  0.00     0.000 HD
ATOM     11   O  BGC C   1      68.208  56.685  48.0670  0.00  0.00     0.000 O
ATOM     13  HD  BGC C   1      68.702  56.138  48.5220  0.00  0.00     0.000 HD
ATOM     13   O  BGC C   1      71.103  55.996  45.7300  0.00  0.00     0.000 O
ATOM     15  HD  BGC C   1      71.597  55.449  46.1850  0.00  0.00     0.000 HD
ATOM     15   C  BGC C   1      70.328  57.202  45.9820  0.00  0.00     0.000 C
ENDROOT
BRANCH 1 16
ATOM     16  O4  BGC C   2      67.420  55.661  42.7680  0.00  0.00     0.000 O
BRANCH 16 20
ATOM     17  C1  BGC C   2      67.085  57.067  38.9490  0.00  0.00     0.000 C
ATOM     18  C2  BGC C   2      68.450  57.229  39.6000  0.00  0.00     0.000 C
ATOM     19  C3  BGC C   2      68.560  56.363  40.8460  0.00  0.00     0.000 C
ATOM     20  C4  BGC C   2      67.394  56.622  41.7400  0.00  0.00     0.000 C
ATOM     21  C5  BGC C   2      66.080  56.510  40.9730  0.00  0.00     0.000 C
ATOM     22  O5  BGC C   2      66.073  57.363  39.8680  0.00  0.00     0.000 O
ATOM     23   O  BGC C   2      69.463  56.870  38.6480  0.00  0.00     0.000 O
ATOM     25  HD  BGC C   2      70.090  56.419  39.0380  0.00  0.00     0.000 HD
ATOM     25   O  BGC C   2      69.769  56.676  41.5280  0.00  0.00     0.000 O
ATOM     27  HD  BGC C   2      70.397  56.224  41.9180  0.00  0.00     0.000 HD
ATOM     27   C  BGC C   2      64.816  56.782  41.8140  0.00  0.00     0.000 C
ATOM     28   O  BGC C   2      64.894  58.057  42.4730  0.00  0.00     0.000 O
ATOM     30  HD  BGC C   2      65.521  57.606  42.8630  0.00  0.00     0.000 HD
BRANCH 17 30
ATOM     30  O4  BGC C   3      66.979  57.960  37.8610  0.00  0.00     0.000 O
BRANCH 30 34
ATOM     31  C1  BGC C   3      65.418  58.199  34.1400  0.00  0.00     0.000 C
ATOM     32  C2  BGC C   3      64.445  58.527  35.2980  0.00  0.00     0.000 C
ATOM     33  C3  BGC C   3      65.182  58.751  36.5730  0.00  0.00     0.000 C
ATOM     34  C4  BGC C   3      66.119  57.563  36.8040  0.00  0.00     0.000 C
ATOM     35  C5  BGC C   3      66.982  57.198  35.5700  0.00  0.00     0.000 C
ATOM     36  O5  BGC C   3      66.165  57.045  34.4360  0.00  0.00     0.000 O
ATOM     37   O  BGC C   3      63.564  59.624  35.1460  0.00  0.00     0.000 O
ATOM     39  HD  BGC C   3      64.071  59.178  35.6880  0.00  0.00     0.000 HD
ATOM     39   O  BGC C   3      64.242  58.902  37.6780  0.00  0.00     0.000 O
ATOM     41  HD  BGC C   3      64.749  58.456  38.2200  0.00  0.00     0.000 HD
ATOM     41   C  BGC C   3      67.804  55.895  35.7060  0.00  0.00     0.000 C
ATOM     42   O  BGC C   3      67.008  54.663  35.8410  0.00  0.00     0.000 O
ATOM     44  HD  BGC C   3      67.515  54.217  36.3830  0.00  0.00     0.000 HD
BRANCH 31 44
ATOM     44  O4  BGC C   4      64.727  57.993  32.9530  0.00  0.00     0.000 O
BRANCH 44 48
ATOM     45  C1  BGC C   4      64.777  58.617  28.9080  0.00  0.00     0.000 C
ATOM     46  C2  BGC C   4      65.842  57.556  29.3330  0.00  0.00     0.000 C
ATOM     47  C3  BGC C   4      65.437  57.263  30.7830  0.00  0.00     0.000 C
ATOM     48  C4  BGC C   4      65.246  58.430  31.7320  0.00  0.00     0.000 C
ATOM     49  C5  BGC C   4      64.172  59.327  31.0970  0.00  0.00     0.000 C
ATOM     50  O5  BGC C   4      64.534  59.703  29.8140  0.00  0.00     0.000 O
ATOM     51   O  BGC C   4      66.011  56.204  28.6150  0.00  0.00     0.000 O
ATOM     53  HD  BGC C   4      66.558  55.685  29.0410  0.00  0.00     0.000 HD
ATOM     53   O  BGC C   4      66.693  56.593  31.2690  0.00  0.00     0.000 O
ATOM     55  HD  BGC C   4      67.241  56.074  31.6940  0.00  0.00     0.000 HD
ATOM     55   C  BGC C   4      64.006  60.613  31.8640  0.00  0.00     0.000 C
ATOM     56   O  BGC C   4      65.196  61.392  32.0320  0.00  0.00     0.000 O
ATOM     58  HD  BGC C   4      65.744  60.873  32.4570  0.00  0.00     0.000 HD
BRANCH 45 58
ATOM     58  O4  BGC C   5      65.090  59.218  27.6860  0.00  0.00     0.000 O
BRANCH 58 62
ATOM     59  C1  BGC C   5      64.470  57.254  25.4250  0.00  0.00     0.000 C
ATOM     60  C2  BGC C   5      64.939  58.469  24.7950  0.00  0.00     0.000 C
ATOM     61  C3  BGC C   5      64.330  59.739  25.3830  0.00  0.00     0.000 C
ATOM     62  C4  BGC C   5      63.948  59.477  26.8320  0.00  0.00     0.000 C
ATOM     63  C5  BGC C   5      63.251  58.138  26.8780  0.00  0.00     0.000 C
ATOM     64  O5  BGC C   5      63.372  57.273  25.7500  0.00  0.00     0.000 O
ATOM     65   O  BGC C   5      61.092  58.980  26.1950  0.00  0.00     0.000 O
ATOM     67  HD  BGC C   5      61.614  58.773  26.8540  0.00  0.00     0.000 HD
ATOM     67   O  BGC C   5      61.092  58.980  26.1950  0.00  0.00     0.000 O
ATOM     69  HD  BGC C   5      61.614  58.773  26.8540  0.00  0.00     0.000 HD
ENDBRANCH 58 62
ENDBRANCH 45 58
ENDBRANCH 44 48
ENDBRANCH 31 44
ENDBRANCH 30 34
ENDBRANCH 17 30
ENDBRANCH 16 20
ENDBRANCH 1 16
TORSDOF 8
ENDMDL
MODEL 65
REMARK VINA RESULT:      -0.2     74.567     76.941
ROOT
ATOM      1  C1  BGC C   1      22.321  44.690  68.0630  0.00  0.00     0.000 C
ATOM      2  C2  BGC C   1      21.504  44.714  69.3530  0.00  0.00     0.000 C
ATOM      3  C3  BGC C   1      20.146  44.062  69.1240  0.00  0.00     0.000 C
ATOM      4  C4  BGC C   1      19.438  44.623  67.9010  0.00  0.00     0.000 C
ATOM      5  C5  BGC C   1      20.400  44.694  66.7200  0.00  0.00     0.000 C
ATOM      6  O5  BGC C   1      21.627  45.274  67.0280  0.00  0.00     0.000 O
ATOM      7   O  BGC C   1      22.230  44.003  70.3270  0.00  0.00     0.000 O
ATOM      9  HD  BGC C   1      21.590  44.568  70.4740  0.00  0.00     0.000 HD
ATOM      9   O  BGC C   1      19.367  44.224  70.3170  0.00  0.00     0.000 O
ATOM     11  HD  BGC C   1      18.727  44.789  70.4630  0.00  0.00     0.000 HD
ATOM     11   O  BGC C   1      18.347  43.752  67.6220  0.00  0.00     0.000 O
ATOM     13  HD  BGC C   1      17.707  44.317  67.7690  0.00  0.00     0.000 HD
ATOM     13   O  BGC C   1      19.604  46.920  65.9800  0.00  0.00     0.000 O
ATOM     15  HD  BGC C   1      18.964  47.485  66.1260  0.00  0.00     0.000 HD
ATOM     15   C  BGC C   1      19.732  45.520  65.6060  0.00  0.00     0.000 C
ENDROOT
BRANCH 1 16
ATOM     16  O4  BGC C   2      23.491  45.450  68.2560  0.00  0.00     0.000 O
BRANCH 16 20
ATOM     17  C1  BGC C   2      27.359  45.443  66.9490  0.00  0.00     0.000 C
ATOM     18  C2  BGC C   2      26.346  46.097  66.0230  0.00  0.00     0.000 C
ATOM     19  C3  BGC C   2      25.039  46.365  66.7550  0.00  0.00     0.000 C
ATOM     20  C4  BGC C   2      24.576  45.115  67.4240  0.00  0.00     0.000 C
ATOM     21  C5  BGC C   2      25.689  44.499  68.2660  0.00  0.00     0.000 C
ATOM     22  O5  BGC C   2      26.829  44.269  67.4950  0.00  0.00     0.000 O
ATOM     23   O  BGC C   2      26.900  47.322  65.5200  0.00  0.00     0.000 O
ATOM     25  HD  BGC C   2      26.292  47.938  65.5010  0.00  0.00     0.000 HD
ATOM     25   O  BGC C   2      24.060  46.803  65.8200  0.00  0.00     0.000 O
ATOM     27  HD  BGC C   2      23.452  47.418  65.8010  0.00  0.00     0.000 HD
ATOM     27   C  BGC C   2      25.306  43.187  68.9830  0.00  0.00     0.000 C
ATOM     28   O  BGC C   2      24.797  42.216  68.0540  0.00  0.00     0.000 O
ATOM     30  HD  BGC C   2      24.188  42.832  68.0350  0.00  0.00     0.000 HD
BRANCH 17 30
ATOM     30  O4  BGC C   3      28.518  45.113  66.2130  0.00  0.00     0.000 O
BRANCH 30 34
ATOM     31  C1  BGC C   3      32.540  44.978  66.5900  0.00  0.00     0.000 C
ATOM     32  C2  BGC C   3      31.775  43.740  67.1150  0.00  0.00     0.000 C
ATOM     33  C3  BGC C   3      30.369  43.728  66.6260  0.00  0.00     0.000 C
ATOM     34  C4  BGC C   3      29.737  45.086  66.9410  0.00  0.00     0.000 C
ATOM     35  C5  BGC C   3      30.604  46.295  66.5050  0.00  0.00     0.000 C
ATOM     36  O5  BGC C   3      31.909  46.162  67.0110  0.00  0.00     0.000 O
ATOM     37   O  BGC C   3      32.306  42.457  66.8420  0.00  0.00     0.000 O
ATOM     39  HD  BGC C   3      31.590  42.939  66.9160  0.00  0.00     0.000 HD
ATOM     39   O  BGC C   3      29.625  42.643  67.2550  0.00  0.00     0.000 O
ATOM     41  HD  BGC C   3      28.909  43.126  67.3290  0.00  0.00     0.000 HD
ATOM     41   C  BGC C   3      30.085  47.676  66.9690  0.00  0.00     0.000 C
ATOM     42   O  BGC C   3      30.065  47.881  68.4270  0.00  0.00     0.000 O
ATOM     44  HD  BGC C   3      29.350  48.364  68.5000  0.00  0.00     0.000 HD
BRANCH 31 44
ATOM     44  O4  BGC C   4      33.851  44.984  67.0480  0.00  0.00     0.000 O
BRANCH 44 48
ATOM     45  C1  BGC C   4      37.733  45.820  66.0520  0.00  0.00     0.000 C
ATOM     46  C2  BGC C   4      36.893  47.127  66.2120  0.00  0.00     0.000 C
ATOM     47  C3  BGC C   4      35.611  46.602  66.8710  0.00  0.00     0.000 C
ATOM     48  C4  BGC C   4      34.897  45.427  66.2340  0.00  0.00     0.000 C
ATOM     49  C5  BGC C   4      35.922  44.283  66.1780  0.00  0.00     0.000 C
ATOM     50  O5  BGC C   4      37.067  44.673  65.5030  0.00  0.00     0.000 O
ATOM     51   O  BGC C   4      37.375  48.338  67.0310  0.00  0.00     0.000 O
ATOM     53  HD  BGC C   4      36.750  48.931  67.1180  0.00  0.00     0.000 HD
ATOM     53   O  BGC C   4      34.697  47.771  66.6210  0.00  0.00     0.000 O
ATOM     55  HD  BGC C   4      34.072  48.364  66.7080  0.00  0.00     0.000 HD
ATOM     55   C  BGC C   4      35.384  43.101  65.4120  0.00  0.00     0.000 C
ATOM     56   O  BGC C   4      34.948  43.375  64.0760  0.00  0.00     0.000 O
ATOM     58  HD  BGC C   4      34.323  43.968  64.1630  0.00  0.00     0.000 HD
BRANCH 45 58
ATOM     58  O4  BGC C   5      38.859  46.012  65.2480  0.00  0.00     0.000 O
BRANCH 58 62
ATOM     59  C1  BGC C   5      40.977  47.531  66.8490  0.00  0.00     0.000 C
ATOM     60  C2  BGC C   5      41.562  47.256  65.5550  0.00  0.00     0.000 C
ATOM     61  C3  BGC C   5      41.327  45.829  65.0660  0.00  0.00     0.000 C
ATOM     62  C4  BGC C   5      40.042  45.300  65.6880  0.00  0.00     0.000 C
ATOM     63  C5  BGC C   5      40.067  45.671  67.1530  0.00  0.00     0.000 C
ATOM     64  O5  BGC C   5      41.005  46.655  67.5860  0.00  0.00     0.000 O
ATOM     65   O  BGC C   5      41.460  43.818  67.8340  0.00  0.00     0.000 O
ATOM     67  HD  BGC C   5      40.655  44.122  67.7330  0.00  0.00     0.000 HD
ATOM     67   O  BGC C   5      41.460  43.818  67.8340  0.00  0.00     0.000 O
ATOM     69  HD  BGC C   5      40.655  44.122  67.7330  0.00  0.00     0.000 HD
ENDBRANCH 58 62
ENDBRANCH 45 58
ENDBRANCH 44 48
ENDBRANCH 31 44
ENDBRANCH 30 34
ENDBRANCH 17 30
ENDBRANCH 16 20
ENDBRANCH 1 16
TORSDOF 8
ENDMDL
MODEL 66
REMARK VINA RESULT:      -0.2     77.659     83.214
ROOT
ATOM      1  C1  BGC C   1      46.384  58.183  50.7580  0.00  0.00     0.000 C
ATOM      2  C2  BGC C   1      47.701  58.787  50.2740  0.00  0.00     0.000 C
ATOM      3  C3  BGC C   1      47.931  58.431  48.8100  0.00  0.00     0.000 C
ATOM      4  C4  BGC C   1      47.770  56.943  48.5480  0.00  0.00     0.000 C
ATOM      5  C5  BGC C   1      46.498  56.425  49.2130  0.00  0.00     0.000 C
ATOM      6  O5  BGC C   1      46.353  56.825  50.5380  0.00  0.00     0.000 O
ATOM      7   O  BGC C   1      47.608  60.184  50.4290  0.00  0.00     0.000 O
ATOM      9  HD  BGC C   1      48.336  59.724  50.3360  0.00  0.00     0.000 HD
ATOM      9   O  BGC C   1      49.233  58.904  48.4360  0.00  0.00     0.000 O
ATOM     11  HD  BGC C   1      49.961  58.444  48.3440  0.00  0.00     0.000 HD
ATOM     11   O  BGC C   1      47.713  56.778  47.1350  0.00  0.00     0.000 O
ATOM     13  HD  BGC C   1      48.441  56.318  47.0430  0.00  0.00     0.000 HD
ATOM     13   O  BGC C   1      47.563  54.341  50.0250  0.00  0.00     0.000 O
ATOM     15  HD  BGC C   1      48.291  53.881  49.9320  0.00  0.00     0.000 HD
ATOM     15   C  BGC C   1      46.524  54.886  49.1650  0.00  0.00     0.000 C
ENDROOT
BRANCH 1 16
ATOM     16  O4  BGC C   2      46.284  58.377  52.1500  0.00  0.00     0.000 O
BRANCH 16 20
ATOM     17  C1  BGC C   2      43.348  58.979  54.9220  0.00  0.00     0.000 C
ATOM     18  C2  BGC C   2      43.595  57.534  54.5190  0.00  0.00     0.000 C
ATOM     19  C3  BGC C   2      44.920  57.398  53.7820  0.00  0.00     0.000 C
ATOM     20  C4  BGC C   2      44.976  58.388  52.6680  0.00  0.00     0.000 C
ATOM     21  C5  BGC C   2      44.638  59.791  53.1640  0.00  0.00     0.000 C
ATOM     22  O5  BGC C   2      43.395  59.810  53.7980  0.00  0.00     0.000 O
ATOM     23   O  BGC C   2      43.591  56.716  55.6990  0.00  0.00     0.000 O
ATOM     25  HD  BGC C   2      44.216  56.119  55.6490  0.00  0.00     0.000 HD
ATOM     25   O  BGC C   2      45.032  56.079  53.2610  0.00  0.00     0.000 O
ATOM     27  HD  BGC C   2      45.657  55.482  53.2110  0.00  0.00     0.000 HD
ATOM     27   C  BGC C   2      44.651  60.883  52.0740  0.00  0.00     0.000 C
ATOM     28   O  BGC C   2      43.796  60.530  50.9740  0.00  0.00     0.000 O
ATOM     30  HD  BGC C   2      44.422  59.933  50.9240  0.00  0.00     0.000 HD
BRANCH 17 30
ATOM     30  O4  BGC C   3      42.068  59.086  55.5080  0.00  0.00     0.000 O
BRANCH 30 34
ATOM     31  C1  BGC C   3      40.121  61.053  58.4540  0.00  0.00     0.000 C
ATOM     32  C2  BGC C   3      40.245  61.810  57.1100  0.00  0.00     0.000 C
ATOM     33  C3  BGC C   3      40.654  60.892  56.0100  0.00  0.00     0.000 C
ATOM     34  C4  BGC C   3      41.899  60.124  56.4610  0.00  0.00     0.000 C
ATOM     35  C5  BGC C   3      41.766  59.490  57.8690  0.00  0.00     0.000 C
ATOM     36  O5  BGC C   3      41.348  60.458  58.7990  0.00  0.00     0.000 O
ATOM     37   O  BGC C   3      39.120  62.527  56.6360  0.00  0.00     0.000 O
ATOM     39  HD  BGC C   3      39.797  62.029  56.4270  0.00  0.00     0.000 HD
ATOM     39   O  BGC C   3      40.916  61.650  54.7930  0.00  0.00     0.000 O
ATOM     41  HD  BGC C   3      41.592  61.152  54.5830  0.00  0.00     0.000 HD
ATOM     41   C  BGC C   3      43.063  58.864  58.4320  0.00  0.00     0.000 C
ATOM     42   O  BGC C   3      44.163  59.812  58.6760  0.00  0.00     0.000 O
ATOM     44  HD  BGC C   3      44.839  59.314  58.4660  0.00  0.00     0.000 HD
BRANCH 31 44
ATOM     44  O4  BGC C   4      39.738  61.912  59.4760  0.00  0.00     0.000 O
BRANCH 44 48
ATOM     45  C1  BGC C   4      37.439  62.284  62.8420  0.00  0.00     0.000 C
ATOM     46  C2  BGC C   4      38.663  61.346  63.0900  0.00  0.00     0.000 C
ATOM     47  C3  BGC C   4      39.518  61.602  61.8420  0.00  0.00     0.000 C
ATOM     48  C4  BGC C   4      38.862  61.493  60.4800  0.00  0.00     0.000 C
ATOM     49  C5  BGC C   4      37.693  62.491  60.4850  0.00  0.00     0.000 C
ATOM     50  O5  BGC C   4      36.832  62.242  61.5410  0.00  0.00     0.000 O
ATOM     51   O  BGC C   4      39.583  61.476  64.3180  0.00  0.00     0.000 O
ATOM     53  HD  BGC C   4      40.278  60.964  64.2500  0.00  0.00     0.000 HD
ATOM     53   O  BGC C   4      40.433  60.411  61.9100  0.00  0.00     0.000 O
ATOM     55  HD  BGC C   4      41.128  59.898  61.8410  0.00  0.00     0.000 HD
ATOM     55   C  BGC C   4      36.855  62.361  59.2400  0.00  0.00     0.000 C
ATOM     56   O  BGC C   4      36.325  61.056  58.9830  0.00  0.00     0.000 O
ATOM     58  HD  BGC C   4      37.020  60.543  58.9150  0.00  0.00     0.000 HD
BRANCH 45 58
ATOM     58  O4  BGC C   5      36.398  62.041  63.7420  0.00  0.00     0.000 O
BRANCH 58 62
ATOM     59  C1  BGC C   5      37.137  63.233  66.4600  0.00  0.00     0.000 C
ATOM     60  C2  BGC C   5      35.812  62.669  66.6070  0.00  0.00     0.000 C
ATOM     61  C3  BGC C   5      34.874  63.000  65.4490  0.00  0.00     0.000 C
ATOM     62  C4  BGC C   5      35.702  63.229  64.1930  0.00  0.00     0.000 C
ATOM     63  C5  BGC C   5      36.868  64.110  64.5790  0.00  0.00     0.000 C
ATOM     64  O5  BGC C   5      37.169  64.265  65.9650  0.00  0.00     0.000 O
ATOM     65   O  BGC C   5      35.638  66.186  64.4550  0.00  0.00     0.000 O
ATOM     67  HD  BGC C   5      36.152  65.622  64.0460  0.00  0.00     0.000 HD
ATOM     67   O  BGC C   5      35.638  66.186  64.4550  0.00  0.00     0.000 O
ATOM     69  HD  BGC C   5      36.152  65.622  64.0460  0.00  0.00     0.000 HD
ENDBRANCH 58 62
ENDBRANCH 45 58
ENDBRANCH 44 48
ENDBRANCH 31 44
ENDBRANCH 30 34
ENDBRANCH 17 30
ENDBRANCH 16 20
ENDBRANCH 1 16
TORSDOF 8
ENDMDL
MODEL 67
REMARK VINA RESULT:      -0.2     53.399     61.373
ROOT
ATOM      1  C1  BGC C   1      60.484  33.023   5.6090  0.00  0.00     0.000 C
ATOM      2  C2  BGC C   1      59.153  32.285   5.4630  0.00  0.00     0.000 C
ATOM      3  C3  BGC C   1      59.336  31.046   4.5940  0.00  0.00     0.000 C
ATOM      4  C4  BGC C   1      60.046  31.360   3.2880  0.00  0.00     0.000 C
ATOM      5  C5  BGC C   1      61.271  32.231   3.5480  0.00  0.00     0.000 C
ATOM      6  O5  BGC C   1      61.020  33.321   4.3770  0.00  0.00     0.000 O
ATOM      7   O  BGC C   1      58.730  31.919   6.7540  0.00  0.00     0.000 O
ATOM      9  HD  BGC C   1      58.235  31.967   6.0450  0.00  0.00     0.000 HD
ATOM      9   O  BGC C   1      58.045  30.461   4.3770  0.00  0.00     0.000 O
ATOM     11  HD  BGC C   1      57.550  30.509   3.6680  0.00  0.00     0.000 HD
ATOM     11   O  BGC C   1      60.418  30.112   2.7120  0.00  0.00     0.000 O
ATOM     13  HD  BGC C   1      59.923  30.160   2.0030  0.00  0.00     0.000 HD
ATOM     13   O  BGC C   1      60.857  33.701   1.5970  0.00  0.00     0.000 O
ATOM     15  HD  BGC C   1      60.362  33.748   0.8870  0.00  0.00     0.000 HD
ATOM     15   C  BGC C   1      61.785  32.753   2.1930  0.00  0.00     0.000 C
ENDROOT
BRANCH 1 16
ATOM     16  O4  BGC C   2      60.250  34.248   6.2630  0.00  0.00     0.000 O
BRANCH 16 20
ATOM     17  C1  BGC C   2      62.230  36.746   8.8150  0.00  0.00     0.000 C
ATOM     18  C2  BGC C   2      62.575  36.892   7.3410  0.00  0.00     0.000 C
ATOM     19  C3  BGC C   2      61.539  36.192   6.4730  0.00  0.00     0.000 C
ATOM     20  C4  BGC C   2      61.354  34.790   6.9470  0.00  0.00     0.000 C
ATOM     21  C5  BGC C   2      61.090  34.750   8.4490  0.00  0.00     0.000 C
ATOM     22  O5  BGC C   2      62.110  35.394   9.1520  0.00  0.00     0.000 O
ATOM     23   O  BGC C   2      62.641  38.289   7.0170  0.00  0.00     0.000 O
ATOM     25  HD  BGC C   2      62.280  38.431   6.2420  0.00  0.00     0.000 HD
ATOM     25   O  BGC C   2      61.987  36.189   5.1220  0.00  0.00     0.000 O
ATOM     27  HD  BGC C   2      61.626  36.331   4.3480  0.00  0.00     0.000 HD
ATOM     27   C  BGC C   2      60.905  33.335   9.0350  0.00  0.00     0.000 C
ATOM     28   O  BGC C   2      62.017  32.487   8.7090  0.00  0.00     0.000 O
ATOM     30  HD  BGC C   2      61.656  32.629   7.9350  0.00  0.00     0.000 HD
BRANCH 17 30
ATOM     30  O4  BGC C   3      63.263  37.313   9.5930  0.00  0.00     0.000 O
BRANCH 30 34
ATOM     31  C1  BGC C   3      63.830  39.419  12.9960  0.00  0.00     0.000 C
ATOM     32  C2  BGC C   3      63.704  37.886  13.1690  0.00  0.00     0.000 C
ATOM     33  C3  BGC C   3      63.848  37.184  11.8630  0.00  0.00     0.000 C
ATOM     34  C4  BGC C   3      62.884  37.824  10.8620  0.00  0.00     0.000 C
ATOM     35  C5  BGC C   3      62.963  39.372  10.8190  0.00  0.00     0.000 C
ATOM     36  O5  BGC C   3      62.842  39.898  12.1170  0.00  0.00     0.000 O
ATOM     37   O  BGC C   3      64.580  37.238  14.0720  0.00  0.00     0.000 O
ATOM     39  HD  BGC C   3      64.168  37.194  13.3120  0.00  0.00     0.000 HD
ATOM     39   O  BGC C   3      63.571  35.761  12.0240  0.00  0.00     0.000 O
ATOM     41  HD  BGC C   3      63.160  35.717  11.2630  0.00  0.00     0.000 HD
ATOM     41   C  BGC C   3      61.881  40.061   9.9560  0.00  0.00     0.000 C
ATOM     42   O  BGC C   3      60.497  39.884  10.4270  0.00  0.00     0.000 O
ATOM     44  HD  BGC C   3      60.085  39.840   9.6670  0.00  0.00     0.000 HD
BRANCH 31 44
ATOM     44  O4  BGC C   4      63.697  40.070  14.2160  0.00  0.00     0.000 O
BRANCH 44 48
ATOM     45  C1  BGC C   4      65.061  43.171  16.5130  0.00  0.00     0.000 C
ATOM     46  C2  BGC C   4      64.211  43.687  15.3080  0.00  0.00     0.000 C
ATOM     47  C3  BGC C   4      63.568  42.392  14.7950  0.00  0.00     0.000 C
ATOM     48  C4  BGC C   4      64.462  41.200  14.5170  0.00  0.00     0.000 C
ATOM     49  C5  BGC C   4      65.192  40.895  15.8340  0.00  0.00     0.000 C
ATOM     50  O5  BGC C   4      65.874  42.009  16.2940  0.00  0.00     0.000 O
ATOM     51   O  BGC C   4      63.093  44.734  15.4580  0.00  0.00     0.000 O
ATOM     53  HD  BGC C   4      62.643  44.825  14.7240  0.00  0.00     0.000 HD
ATOM     53   O  BGC C   4      63.124  42.849  13.4330  0.00  0.00     0.000 O
ATOM     55  HD  BGC C   4      62.674  42.940  12.6990  0.00  0.00     0.000 HD
ATOM     55   C  BGC C   4      66.239  39.828  15.6470  0.00  0.00     0.000 C
ATOM     56   O  BGC C   4      67.224  40.095  14.6430  0.00  0.00     0.000 O
ATOM     58  HD  BGC C   4      66.774  40.187  13.9090  0.00  0.00     0.000 HD
BRANCH 45 58
ATOM     58  O4  BGC C   5      65.935  44.147  16.9980  0.00  0.00     0.000 O
BRANCH 58 62
ATOM     59  C1  BGC C   5      64.341  46.195  18.6150  0.00  0.00     0.000 C
ATOM     60  C2  BGC C   5      65.727  46.604  18.6900  0.00  0.00     0.000 C
ATOM     61  C3  BGC C   5      66.691  45.454  18.9670  0.00  0.00     0.000 C
ATOM     62  C4  BGC C   5      66.082  44.162  18.4390  0.00  0.00     0.000 C
ATOM     63  C5  BGC C   5      64.635  44.139  18.8710  0.00  0.00     0.000 C
ATOM     64  O5  BGC C   5      64.048  45.354  19.3340  0.00  0.00     0.000 O
ATOM     65   O  BGC C   5      65.074  43.320  21.1010  0.00  0.00     0.000 O
ATOM     67  HD  BGC C   5      64.872  43.122  20.2830  0.00  0.00     0.000 HD
ATOM     67   O  BGC C   5      65.074  43.320  21.1010  0.00  0.00     0.000 O
ATOM     69  HD  BGC C   5      64.872  43.122  20.2830  0.00  0.00     0.000 HD
ENDBRANCH 58 62
ENDBRANCH 45 58
ENDBRANCH 44 48
ENDBRANCH 31 44
ENDBRANCH 30 34
ENDBRANCH 17 30
ENDBRANCH 16 20
ENDBRANCH 1 16
TORSDOF 8
ENDMDL
MODEL 68
REMARK VINA RESULT:      -0.2     54.249     63.280
ROOT
ATOM      1  C1  BGC C   1      61.042  34.147   4.6500  0.00  0.00     0.000 C
ATOM      2  C2  BGC C   1      59.630  33.574   4.7730  0.00  0.00     0.000 C
ATOM      3  C3  BGC C   1      59.502  32.315   3.9230  0.00  0.00     0.000 C
ATOM      4  C4  BGC C   1      59.987  32.532   2.4990  0.00  0.00     0.000 C
ATOM      5  C5  BGC C   1      61.333  33.251   2.5040  0.00  0.00     0.000 C
ATOM      6  O5  BGC C   1      61.370  34.369   3.3330  0.00  0.00     0.000 O
ATOM      7   O  BGC C   1      59.414  33.270   6.1310  0.00  0.00     0.000 O
ATOM      9  HD  BGC C   1      58.805  33.372   5.5240  0.00  0.00     0.000 HD
ATOM      9   O  BGC C   1      58.133  31.889   3.9640  0.00  0.00     0.000 O
ATOM     11  HD  BGC C   1      57.524  31.990   3.3570  0.00  0.00     0.000 HD
ATOM     11   O  BGC C   1      60.097  31.245   1.9020  0.00  0.00     0.000 O
ATOM     13  HD  BGC C   1      59.488  31.346   1.2940  0.00  0.00     0.000 HD
ATOM     13   O  BGC C   1      60.739  34.746   0.6200  0.00  0.00     0.000 O
ATOM     15  HD  BGC C   1      60.129  34.848   0.0130  0.00  0.00     0.000 HD
ATOM     15   C  BGC C   1      61.644  33.697   1.0630  0.00  0.00     0.000 C
ENDROOT
BRANCH 1 16
ATOM     16  O4  BGC C   2      61.079  35.395   5.3000  0.00  0.00     0.000 O
BRANCH 16 20
ATOM     17  C1  BGC C   2      63.778  37.654   7.3700  0.00  0.00     0.000 C
ATOM     18  C2  BGC C   2      63.858  37.747   5.8540  0.00  0.00     0.000 C
ATOM     19  C3  BGC C   2      62.603  37.171   5.2120  0.00  0.00     0.000 C
ATOM     20  C4  BGC C   2      62.347  35.805   5.7540  0.00  0.00     0.000 C
ATOM     21  C5  BGC C   2      62.364  35.808   7.2790  0.00  0.00     0.000 C
ATOM     22  O5  BGC C   2      63.565  36.329   7.7640  0.00  0.00     0.000 O
ATOM     23   O  BGC C   2      64.025  39.123   5.4830  0.00  0.00     0.000 O
ATOM     25  HD  BGC C   2      63.546  39.303   4.7840  0.00  0.00     0.000 HD
ATOM     25   O  BGC C   2      62.788  37.104   3.8030  0.00  0.00     0.000 O
ATOM     27  HD  BGC C   2      62.309  37.284   3.1050  0.00  0.00     0.000 HD
ATOM     27   C  BGC C   2      62.126  34.430   7.9310  0.00  0.00     0.000 C
ATOM     28   O  BGC C   2      63.051  33.451   7.4300  0.00  0.00     0.000 O
ATOM     30  HD  BGC C   2      62.572  33.630   6.7310  0.00  0.00     0.000 HD
BRANCH 17 30
ATOM     30  O4  BGC C   3      64.997  38.098   7.9280  0.00  0.00     0.000 O
BRANCH 30 34
ATOM     31  C1  BGC C   3      66.430  40.144  11.1060  0.00  0.00     0.000 C
ATOM     32  C2  BGC C   3      66.160  38.639  11.3430  0.00  0.00     0.000 C
ATOM     33  C3  BGC C   3      65.975  37.915  10.0550  0.00  0.00     0.000 C
ATOM     34  C4  BGC C   3      64.923  38.660   9.2290  0.00  0.00     0.000 C
ATOM     35  C5  BGC C   3      65.174  40.186   9.1280  0.00  0.00     0.000 C
ATOM     36  O5  BGC C   3      65.360  40.733  10.4090  0.00  0.00     0.000 O
ATOM     37   O  BGC C   3      67.106  37.896  12.0890  0.00  0.00     0.000 O
ATOM     39  HD  BGC C   3      66.558  37.896  11.4190  0.00  0.00     0.000 HD
ATOM     39   O  BGC C   3      65.568  36.537  10.3050  0.00  0.00     0.000 O
ATOM     41  HD  BGC C   3      65.020  36.538   9.6350  0.00  0.00     0.000 HD
ATOM     41   C  BGC C   3      64.039  40.995   8.4580  0.00  0.00     0.000 C
ATOM     42   O  BGC C   3      62.755  40.990   9.1810  0.00  0.00     0.000 O
ATOM     44  HD  BGC C   3      62.207  40.990   8.5110  0.00  0.00     0.000 HD
BRANCH 31 44
ATOM     44  O4  BGC C   4      66.604  40.815  12.3090  0.00  0.00     0.000 O
BRANCH 44 48
ATOM     45  C1  BGC C   4      68.725  43.745  14.2250  0.00  0.00     0.000 C
ATOM     46  C2  BGC C   4      67.733  44.351  13.1820  0.00  0.00     0.000 C
ATOM     47  C3  BGC C   4      66.858  43.140  12.8350  0.00  0.00     0.000 C
ATOM     48  C4  BGC C   4      67.538  41.846  12.4310  0.00  0.00     0.000 C
ATOM     49  C5  BGC C   4      68.460  41.465  13.6000  0.00  0.00     0.000 C
ATOM     50  O5  BGC C   4      69.342  42.492  13.8940  0.00  0.00     0.000 O
ATOM     51   O  BGC C   4      66.792  45.526  13.5050  0.00  0.00     0.000 O
ATOM     53  HD  BGC C   4      66.227  45.666  12.8630  0.00  0.00     0.000 HD
ATOM     53   O  BGC C   4      66.225  43.637  11.5640  0.00  0.00     0.000 O
ATOM     55  HD  BGC C   4      65.660  43.777  10.9230  0.00  0.00     0.000 HD
ATOM     55   C  BGC C   4      69.322  40.278  13.2550  0.00  0.00     0.000 C
ATOM     56   O  BGC C   4      70.127  40.418  12.0800  0.00  0.00     0.000 O
ATOM     58  HD  BGC C   4      69.562  40.558  11.4380  0.00  0.00     0.000 HD
BRANCH 45 58
ATOM     58  O4  BGC C   5      69.783  44.612  14.5110  0.00  0.00     0.000 O
BRANCH 58 62
ATOM     59  C1  BGC C   5      68.769  46.849  16.3340  0.00  0.00     0.000 C
ATOM     60  C2  BGC C   5      70.182  47.088  16.1410  0.00  0.00     0.000 C
ATOM     61  C3  BGC C   5      71.040  45.832  16.2690  0.00  0.00     0.000 C
ATOM     62  C4  BGC C   5      70.196  44.620  15.9000  0.00  0.00     0.000 C
ATOM     63  C5  BGC C   5      68.862  44.774  16.5920  0.00  0.00     0.000 C
ATOM     64  O5  BGC C   5      68.518  46.054  17.1190  0.00  0.00     0.000 O
ATOM     65   O  BGC C   5      69.610  43.924  18.7260  0.00  0.00     0.000 O
ATOM     67  HD  BGC C   5      69.236  43.746  17.9650  0.00  0.00     0.000 HD
ATOM     67   O  BGC C   5      69.610  43.924  18.7260  0.00  0.00     0.000 O
ATOM     69  HD  BGC C   5      69.236  43.746  17.9650  0.00  0.00     0.000 HD
ENDBRANCH 58 62
ENDBRANCH 45 58
ENDBRANCH 44 48
ENDBRANCH 31 44
ENDBRANCH 30 34
ENDBRANCH 17 30
ENDBRANCH 16 20
ENDBRANCH 1 16
TORSDOF 8
ENDMDL
MODEL 69
REMARK VINA RESULT:      -0.2     54.330     58.157
ROOT
ATOM      1  C1  BGC C   1      41.692  56.639   5.2400  0.00  0.00     0.000 C
ATOM      2  C2  BGC C   1      40.173  56.811   5.2460  0.00  0.00     0.000 C
ATOM      3  C3  BGC C   1      39.749  57.741   4.1150  0.00  0.00     0.000 C
ATOM      4  C4  BGC C   1      40.544  59.036   4.1070  0.00  0.00     0.000 C
ATOM      5  C5  BGC C   1      42.034  58.742   4.2640  0.00  0.00     0.000 C
ATOM      6  O5  BGC C   1      42.326  57.859   5.2990  0.00  0.00     0.000 O
ATOM      7   O  BGC C   1      39.603  55.536   5.0700  0.00  0.00     0.000 O
ATOM      9  HD  BGC C   1      39.205  56.238   5.3840  0.00  0.00     0.000 HD
ATOM      9   O  BGC C   1      38.340  57.977   4.2380  0.00  0.00     0.000 O
ATOM     11  HD  BGC C   1      37.942  58.679   4.5520  0.00  0.00     0.000 HD
ATOM     11   O  BGC C   1      40.277  59.676   2.8640  0.00  0.00     0.000 O
ATOM     13  HD  BGC C   1      39.879  60.378   3.1780  0.00  0.00     0.000 HD
ATOM     13   O  BGC C   1      42.415  60.616   5.8390  0.00  0.00     0.000 O
ATOM     15  HD  BGC C   1      42.017  61.318   6.1530  0.00  0.00     0.000 HD
ATOM     15   C  BGC C   1      42.759  60.073   4.5340  0.00  0.00     0.000 C
ENDROOT
BRANCH 1 16
ATOM     16  O4  BGC C   2      42.068  55.924   6.3940  0.00  0.00     0.000 O
BRANCH 16 20
ATOM     17  C1  BGC C   2      44.964  53.267   7.5000  0.00  0.00     0.000 C
ATOM     18  C2  BGC C   2      45.362  54.734   7.5290  0.00  0.00     0.000 C
ATOM     19  C3  BGC C   2      44.132  55.628   7.4590  0.00  0.00     0.000 C
ATOM     20  C4  BGC C   2      43.284  55.222   6.3010  0.00  0.00     0.000 C
ATOM     21  C5  BGC C   2      43.008  53.721   6.3240  0.00  0.00     0.000 C
ATOM     22  O5  BGC C   2      44.199  52.995   6.3600  0.00  0.00     0.000 O
ATOM     23   O  BGC C   2      46.101  54.990   8.7330  0.00  0.00     0.000 O
ATOM     25  HD  BGC C   2      45.867  55.753   9.0680  0.00  0.00     0.000 HD
ATOM     25   O  BGC C   2      44.546  56.980   7.3030  0.00  0.00     0.000 O
ATOM     27  HD  BGC C   2      44.312  57.744   7.6380  0.00  0.00     0.000 HD
ATOM     27   C  BGC C   2      42.151  53.205   5.1490  0.00  0.00     0.000 C
ATOM     28   O  BGC C   2      42.721  53.581   3.8850  0.00  0.00     0.000 O
ATOM     30  HD  BGC C   2      42.487  54.344   4.2200  0.00  0.00     0.000 HD
BRANCH 17 30
ATOM     30  O4  BGC C   3      46.129  52.469   7.4600  0.00  0.00     0.000 O
BRANCH 30 34
ATOM     31  C1  BGC C   3      47.584  48.971   8.8670  0.00  0.00     0.000 C
ATOM     32  C2  BGC C   3      46.730  48.873   7.5800  0.00  0.00     0.000 C
ATOM     33  C3  BGC C   3      46.539  50.212   6.9580  0.00  0.00     0.000 C
ATOM     34  C4  BGC C   3      46.022  51.174   8.0300  0.00  0.00     0.000 C
ATOM     35  C5  BGC C   3      46.841  51.141   9.3470  0.00  0.00     0.000 C
ATOM     36  O5  BGC C   3      46.967  49.818   9.8050  0.00  0.00     0.000 O
ATOM     37   O  BGC C   3      47.167  48.009   6.5480  0.00  0.00     0.000 O
ATOM     39  HD  BGC C   3      46.799  48.768   6.7440  0.00  0.00     0.000 HD
ATOM     39   O  BGC C   3      45.607  50.120   5.8400  0.00  0.00     0.000 O
ATOM     41  HD  BGC C   3      45.238  50.879   6.0360  0.00  0.00     0.000 HD
ATOM     41   C  BGC C   3      46.241  51.961  10.5120  0.00  0.00     0.000 C
ATOM     42   O  BGC C   3      44.936  51.489  11.0050  0.00  0.00     0.000 O
ATOM     44  HD  BGC C   3      44.568  52.248  11.2010  0.00  0.00     0.000 HD
BRANCH 31 44
ATOM     44  O4  BGC C   4      47.761  47.720   9.4430  0.00  0.00     0.000 O
BRANCH 44 48
ATOM     45  C1  BGC C   4      50.415  45.283  11.3870  0.00  0.00     0.000 C
ATOM     46  C2  BGC C   4      49.941  46.455  12.3050  0.00  0.00     0.000 C
ATOM     47  C3  BGC C   4      48.761  47.025  11.5080  0.00  0.00     0.000 C
ATOM     48  C4  BGC C   4      48.971  47.369  10.0470  0.00  0.00     0.000 C
ATOM     49  C5  BGC C   4      49.441  46.074   9.3650  0.00  0.00     0.000 C
ATOM     50  O5  BGC C   4      50.568  45.565   9.9880  0.00  0.00     0.000 O
ATOM     51   O  BGC C   4      49.465  46.244  13.7540  0.00  0.00     0.000 O
ATOM     53  HD  BGC C   4      49.128  46.970  14.0860  0.00  0.00     0.000 HD
ATOM     53   O  BGC C   4      48.616  48.360  12.1860  0.00  0.00     0.000 O
ATOM     55  HD  BGC C   4      48.279  49.086  12.5180  0.00  0.00     0.000 HD
ATOM     55   C  BGC C   4      49.845  46.321   7.9350  0.00  0.00     0.000 C
ATOM     56   O  BGC C   4      50.854  47.318   7.7400  0.00  0.00     0.000 O
ATOM     58  HD  BGC C   4      50.517  48.044   8.0720  0.00  0.00     0.000 HD
BRANCH 45 58
ATOM     58  O4  BGC C   5      51.643  44.757  11.7950  0.00  0.00     0.000 O
BRANCH 58 62
ATOM     59  C1  BGC C   5      51.210  43.029  14.2800  0.00  0.00     0.000 C
ATOM     60  C2  BGC C   5      52.619  42.944  13.9640  0.00  0.00     0.000 C
ATOM     61  C3  BGC C   5      52.902  42.732  12.4790  0.00  0.00     0.000 C
ATOM     62  C4  BGC C   5      51.754  43.318  11.6690  0.00  0.00     0.000 C
ATOM     63  C5  BGC C   5      50.469  42.876  12.3290  0.00  0.00     0.000 C
ATOM     64  O5  BGC C   5      50.534  42.350  13.6530  0.00  0.00     0.000 O
ATOM     65   O  BGC C   5      50.419  40.693  11.2960  0.00  0.00     0.000 O
ATOM     67  HD  BGC C   5      50.160  41.519  11.2600  0.00  0.00     0.000 HD
ATOM     67   O  BGC C   5      50.419  40.693  11.2960  0.00  0.00     0.000 O
ATOM     69  HD  BGC C   5      50.160  41.519  11.2600  0.00  0.00     0.000 HD
ENDBRANCH 58 62
ENDBRANCH 45 58
ENDBRANCH 44 48
ENDBRANCH 31 44
ENDBRANCH 30 34
ENDBRANCH 17 30
ENDBRANCH 16 20
ENDBRANCH 1 16
TORSDOF 8
ENDMDL
MODEL 70
REMARK VINA RESULT:      -0.2     60.106     64.696
ROOT
ATOM      1  C1  BGC C   1      50.522  45.242  30.1200  0.00  0.00     0.000 C
ATOM      2  C2  BGC C   1      50.721  43.728  30.0580  0.00  0.00     0.000 C
ATOM      3  C3  BGC C   1      49.920  43.050  31.1630  0.00  0.00     0.000 C
ATOM      4  C4  BGC C   1      50.172  43.678  32.5240  0.00  0.00     0.000 C
ATOM      5  C5  BGC C   1      50.099  45.199  32.4250  0.00  0.00     0.000 C
ATOM      6  O5  BGC C   1      50.834  45.729  31.3680  0.00  0.00     0.000 O
ATOM      7   O  BGC C   1      50.276  43.294  28.7940  0.00  0.00     0.000 O
ATOM      9  HD  BGC C   1      50.800  42.862  29.3310  0.00  0.00     0.000 HD
ATOM      9   O  BGC C   1      50.238  41.652  31.1500  0.00  0.00     0.000 O
ATOM     11  HD  BGC C   1      50.763  41.219  31.6860  0.00  0.00     0.000 HD
ATOM     11   O  BGC C   1      49.171  43.173  33.4010  0.00  0.00     0.000 O
ATOM     13  HD  BGC C   1      49.695  42.741  33.9380  0.00  0.00     0.000 HD
ATOM     13   O  BGC C   1      52.063  45.563  33.8900  0.00  0.00     0.000 O
ATOM     15  HD  BGC C   1      52.587  45.130  34.4270  0.00  0.00     0.000 HD
ATOM     15   C  BGC C   1      50.635  45.791  33.7410  0.00  0.00     0.000 C
ENDROOT
BRANCH 1 16
ATOM     16  O4  BGC C   2      51.405  45.850  29.2070  0.00  0.00     0.000 O
BRANCH 16 20
ATOM     17  C1  BGC C   2      51.488  49.163  26.8210  0.00  0.00     0.000 C
ATOM     18  C2  BGC C   2      51.860  49.384  28.2780  0.00  0.00     0.000 C
ATOM     19  C3  BGC C   2      52.148  48.059  28.9690  0.00  0.00     0.000 C
ATOM     20  C4  BGC C   2      51.013  47.118  28.7380  0.00  0.00     0.000 C
ATOM     21  C5  BGC C   2      50.671  47.027  27.2540  0.00  0.00     0.000 C
ATOM     22  O5  BGC C   2      50.399  48.290  26.7260  0.00  0.00     0.000 O
ATOM     23   O  BGC C   2      53.010  50.241  28.3380  0.00  0.00     0.000 O
ATOM     25  HD  BGC C   2      53.554  49.966  28.9530  0.00  0.00     0.000 HD
ATOM     25   O  BGC C   2      52.309  48.285  30.3640  0.00  0.00     0.000 O
ATOM     27  HD  BGC C   2      52.854  48.009  30.9790  0.00  0.00     0.000 HD
ATOM     27   C  BGC C   2      49.492  46.089  26.9200  0.00  0.00     0.000 C
ATOM     28   O  BGC C   2      48.320  46.436  27.6740  0.00  0.00     0.000 O
ATOM     30  HD  BGC C   2      48.864  46.160  28.2890  0.00  0.00     0.000 HD
BRANCH 17 30
ATOM     30  O4  BGC C   3      51.126  50.397  26.2390  0.00  0.00     0.000 O
BRANCH 30 34
ATOM     31  C1  BGC C   3      51.422  52.431  22.7590  0.00  0.00     0.000 C
ATOM     32  C2  BGC C   3      50.244  51.432  22.8540  0.00  0.00     0.000 C
ATOM     33  C3  BGC C   3      50.015  51.002  24.2610  0.00  0.00     0.000 C
ATOM     34  C4  BGC C   3      51.347  50.522  24.8430  0.00  0.00     0.000 C
ATOM     35  C5  BGC C   3      52.522  51.506  24.6100  0.00  0.00     0.000 C
ATOM     36  O5  BGC C   3      52.604  51.848  23.2490  0.00  0.00     0.000 O
ATOM     37   O  BGC C   3      48.984  51.827  22.3450  0.00  0.00     0.000 O
ATOM     39  HD  BGC C   3      49.407  51.400  22.9690  0.00  0.00     0.000 HD
ATOM     39   O  BGC C   3      49.009  49.947  24.3090  0.00  0.00     0.000 O
ATOM     41  HD  BGC C   3      49.432  49.520  24.9330  0.00  0.00     0.000 HD
ATOM     41   C  BGC C   3      53.914  50.974  25.0200  0.00  0.00     0.000 C
ATOM     42   O  BGC C   3      54.392  49.811  24.2530  0.00  0.00     0.000 O
ATOM     44  HD  BGC C   3      54.815  49.384  24.8770  0.00  0.00     0.000 HD
BRANCH 31 44
ATOM     44  O4  BGC C   4      51.631  52.830  21.4450  0.00  0.00     0.000 O
BRANCH 44 48
ATOM     45  C1  BGC C   4      52.600  55.988  19.0270  0.00  0.00     0.000 C
ATOM     46  C2  BGC C   4      53.834  55.506  19.8550  0.00  0.00     0.000 C
ATOM     47  C3  BGC C   4      53.334  54.171  20.4220  0.00  0.00     0.000 C
ATOM     48  C4  BGC C   4      52.000  54.143  21.1410  0.00  0.00     0.000 C
ATOM     49  C5  BGC C   4      50.961  54.667  20.1360  0.00  0.00     0.000 C
ATOM     50  O5  BGC C   4      51.315  55.920  19.6640  0.00  0.00     0.000 O
ATOM     51   O  BGC C   4      55.218  55.255  19.2280  0.00  0.00     0.000 O
ATOM     53  HD  BGC C   4      55.759  54.882  19.7910  0.00  0.00     0.000 HD
ATOM     53   O  BGC C   4      54.348  53.961  21.5140  0.00  0.00     0.000 O
ATOM     55  HD  BGC C   4      54.889  53.587  22.0770  0.00  0.00     0.000 HD
ATOM     55   C  BGC C   4      49.613  54.845  20.7840  0.00  0.00     0.000 C
ATOM     56   O  BGC C   4      49.586  55.694  21.9370  0.00  0.00     0.000 O
ATOM     58  HD  BGC C   4      50.127  55.321  22.5010  0.00  0.00     0.000 HD
BRANCH 45 58
ATOM     58  O4  BGC C   5      52.734  57.313  18.6060  0.00  0.00     0.000 O
BRANCH 58 62
ATOM     59  C1  BGC C   5      54.712  57.422  16.2770  0.00  0.00     0.000 C
ATOM     60  C2  BGC C   5      54.247  58.777  16.4820  0.00  0.00     0.000 C
ATOM     61  C3  BGC C   5      52.738  58.883  16.6850  0.00  0.00     0.000 C
ATOM     62  C4  BGC C   5      52.227  57.577  17.2750  0.00  0.00     0.000 C
ATOM     63  C5  BGC C   5      52.871  56.452  16.4990  0.00  0.00     0.000 C
ATOM     64  O5  BGC C   5      53.999  56.754  15.6800  0.00  0.00     0.000 O
ATOM     65   O  BGC C   5      51.314  56.524  14.6540  0.00  0.00     0.000 O
ATOM     67  HD  BGC C   5      51.520  56.166  15.4150  0.00  0.00     0.000 HD
ATOM     67   O  BGC C   5      51.314  56.524  14.6540  0.00  0.00     0.000 O
ATOM     69  HD  BGC C   5      51.520  56.166  15.4150  0.00  0.00     0.000 HD
ENDBRANCH 58 62
ENDBRANCH 45 58
ENDBRANCH 44 48
ENDBRANCH 31 44
ENDBRANCH 30 34
ENDBRANCH 17 30
ENDBRANCH 16 20
ENDBRANCH 1 16
TORSDOF 8
ENDMDL
MODEL 71
REMARK VINA RESULT:      -0.2     63.422     65.718
ROOT
ATOM      1  C1  BGC C   1      15.864   2.923  69.6020  0.00  0.00     0.000 C
ATOM      2  C2  BGC C   1      14.827   3.546  70.5370  0.00  0.00     0.000 C
ATOM      3  C3  BGC C   1      13.546   2.721  70.5200  0.00  0.00     0.000 C
ATOM      4  C4  BGC C   1      13.058   2.446  69.1080  0.00  0.00     0.000 C
ATOM      5  C5  BGC C   1      14.215   1.978  68.2300  0.00  0.00     0.000 C
ATOM      6  O5  BGC C   1      15.355   2.771  68.3330  0.00  0.00     0.000 O
ATOM      7   O  BGC C   1      15.381   3.563  71.8310  0.00  0.00     0.000 O
ATOM      9  HD  BGC C   1      14.714   4.039  71.5510  0.00  0.00     0.000 HD
ATOM      9   O  BGC C   1      12.563   3.410  71.3040  0.00  0.00     0.000 O
ATOM     11  HD  BGC C   1      11.895   3.886  71.0240  0.00  0.00     0.000 HD
ATOM     11   O  BGC C   1      12.053   1.443  69.2070  0.00  0.00     0.000 O
ATOM     13  HD  BGC C   1      11.385   1.919  68.9280  0.00  0.00     0.000 HD
ATOM     13   O  BGC C   1      13.519   3.342  66.2820  0.00  0.00     0.000 O
ATOM     15  HD  BGC C   1      12.852   3.818  66.0020  0.00  0.00     0.000 HD
ATOM     15   C  BGC C   1      13.741   1.988  66.7650  0.00  0.00     0.000 C
ENDROOT
BRANCH 1 16
ATOM     16  O4  BGC C   2      16.963   3.797  69.5030  0.00  0.00     0.000 O
BRANCH 16 20
ATOM     17  C1  BGC C   2      21.003   3.534  68.9690  0.00  0.00     0.000 C
ATOM     18  C2  BGC C   2      20.159   3.461  67.7060  0.00  0.00     0.000 C
ATOM     19  C3  BGC C   2      18.737   3.928  67.9790  0.00  0.00     0.000 C
ATOM     20  C4  BGC C   2      18.187   3.194  69.1550  0.00  0.00     0.000 C
ATOM     21  C5  BGC C   2      19.143   3.265  70.3420  0.00  0.00     0.000 C
ATOM     22  O5  BGC C   2      20.408   2.789  69.9930  0.00  0.00     0.000 O
ATOM     23   O  BGC C   2      20.770   4.275  66.6930  0.00  0.00     0.000 O
ATOM     25  HD  BGC C   2      20.162   4.706  66.2530  0.00  0.00     0.000 HD
ATOM     25   O  BGC C   2      17.933   3.674  66.8330  0.00  0.00     0.000 O
ATOM     27  HD  BGC C   2      17.325   4.105  66.3930  0.00  0.00     0.000 HD
ATOM     27   C  BGC C   2      18.665   2.515  71.6030  0.00  0.00     0.000 C
ATOM     28   O  BGC C   2      18.351   1.145  71.3050  0.00  0.00     0.000 O
ATOM     30  HD  BGC C   2      17.743   1.576  70.8650  0.00  0.00     0.000 HD
BRANCH 17 30
ATOM     30  O4  BGC C   3      22.282   2.996  68.7070  0.00  0.00     0.000 O
BRANCH 30 34
ATOM     31  C1  BGC C   3      26.172   3.554  69.6490  0.00  0.00     0.000 C
ATOM     32  C2  BGC C   3      25.351   2.718  70.6590  0.00  0.00     0.000 C
ATOM     33  C3  BGC C   3      24.056   2.280  70.0680  0.00  0.00     0.000 C
ATOM     34  C4  BGC C   3      23.350   3.509  69.4880  0.00  0.00     0.000 C
ATOM     35  C5  BGC C   3      24.256   4.381  68.5820  0.00  0.00     0.000 C
ATOM     36  O5  BGC C   3      25.452   4.695  69.2520  0.00  0.00     0.000 O
ATOM     37   O  BGC C   3      25.948   1.563  71.2180  0.00  0.00     0.000 O
ATOM     39  HD  BGC C   3      25.222   1.921  70.9120  0.00  0.00     0.000 HD
ATOM     39   O  BGC C   3      23.234   1.631  71.0820  0.00  0.00     0.000 O
ATOM     41  HD  BGC C   3      22.507   1.989  70.7770  0.00  0.00     0.000 HD
ATOM     41   C  BGC C   3      23.634   5.721  68.1280  0.00  0.00     0.000 C
ATOM     42   O  BGC C   3      23.349   6.679  69.2110  0.00  0.00     0.000 O
ATOM     44  HD  BGC C   3      22.623   7.037  68.9050  0.00  0.00     0.000 HD
BRANCH 31 44
ATOM     44  O4  BGC C   4      27.380   3.959  70.2030  0.00  0.00     0.000 O
BRANCH 44 48
ATOM     45  C1  BGC C   4      31.360   4.568  69.4610  0.00  0.00     0.000 C
ATOM     46  C2  BGC C   4      30.477   5.645  68.7530  0.00  0.00     0.000 C
ATOM     47  C3  BGC C   4      29.109   5.416  69.4080  0.00  0.00     0.000 C
ATOM     48  C4  BGC C   4      28.545   4.009  69.4340  0.00  0.00     0.000 C
ATOM     49  C5  BGC C   4      29.587   3.144  70.1630  0.00  0.00     0.000 C
ATOM     50  O5  BGC C   4      30.826   3.238  69.5510  0.00  0.00     0.000 O
ATOM     51   O  BGC C   4      30.779   7.153  68.8240  0.00  0.00     0.000 O
ATOM     53  HD  BGC C   4      30.137   7.622  68.4810  0.00  0.00     0.000 HD
ATOM     53   O  BGC C   4      28.232   6.148  68.4290  0.00  0.00     0.000 O
ATOM     55  HD  BGC C   4      27.589   6.616  68.0870  0.00  0.00     0.000 HD
ATOM     55   C  BGC C   4      29.220   1.684  70.1120  0.00  0.00     0.000 C
ATOM     56   O  BGC C   4      29.026   1.139  68.8020  0.00  0.00     0.000 O
ATOM     58  HD  BGC C   4      28.383   1.607  68.4590  0.00  0.00     0.000 HD
BRANCH 45 58
ATOM     58  O4  BGC C   5      32.607   4.424  68.8500  0.00  0.00     0.000 O
BRANCH 58 62
ATOM     59  C1  BGC C   5      34.373   6.799  69.6200  0.00  0.00     0.000 C
ATOM     60  C2  BGC C   5      35.185   5.938  68.7890  0.00  0.00     0.000 C
ATOM     61  C3  BGC C   5      35.071   4.458  69.1430  0.00  0.00     0.000 C
ATOM     62  C4  BGC C   5      33.706   4.205  69.7690  0.00  0.00     0.000 C
ATOM     63  C5  BGC C   5      33.461   5.309  70.7710  0.00  0.00     0.000 C
ATOM     64  O5  BGC C   5      34.286   6.471  70.7130  0.00  0.00     0.000 O
ATOM     65   O  BGC C   5      34.746   4.295  72.5480  0.00  0.00     0.000 O
ATOM     67  HD  BGC C   5      33.966   4.400  72.1860  0.00  0.00     0.000 HD
ATOM     67   O  BGC C   5      34.746   4.295  72.5480  0.00  0.00     0.000 O
ATOM     69  HD  BGC C   5      33.966   4.400  72.1860  0.00  0.00     0.000 HD
ENDBRANCH 58 62
ENDBRANCH 45 58
ENDBRANCH 44 48
ENDBRANCH 31 44
ENDBRANCH 30 34
ENDBRANCH 17 30
ENDBRANCH 16 20
ENDBRANCH 1 16
TORSDOF 8
ENDMDL
MODEL 72
REMARK VINA RESULT:      -0.2     51.344     55.732
ROOT
ATOM      1  C1  BGC C   1      40.222   6.568  56.3190  0.00  0.00     0.000 C
ATOM      2  C2  BGC C   1      41.175   6.143  57.4350  0.00  0.00     0.000 C
ATOM      3  C3  BGC C   1      41.005   4.658  57.7290  0.00  0.00     0.000 C
ATOM      4  C4  BGC C   1      39.549   4.277  57.9450  0.00  0.00     0.000 C
ATOM      5  C5  BGC C   1      38.676   4.889  56.8530  0.00  0.00     0.000 C
ATOM      6  O5  BGC C   1      38.922   6.241  56.6290  0.00  0.00     0.000 O
ATOM      7   O  BGC C   1      42.486   6.408  56.9960  0.00  0.00     0.000 O
ATOM      9  HD  BGC C   1      42.233   6.285  57.8150  0.00  0.00     0.000 HD
ATOM      9   O  BGC C   1      41.818   4.333  58.8650  0.00  0.00     0.000 O
ATOM     11  HD  BGC C   1      41.565   4.210  59.6840  0.00  0.00     0.000 HD
ATOM     11   O  BGC C   1      39.487   2.855  57.9130  0.00  0.00     0.000 O
ATOM     13  HD  BGC C   1      39.235   2.732  58.7330  0.00  0.00     0.000 HD
ATOM     13   O  BGC C   1      36.871   5.541  58.4180  0.00  0.00     0.000 O
ATOM     15  HD  BGC C   1      36.618   5.418  59.2380  0.00  0.00     0.000 HD
ATOM     15   C  BGC C   1      37.203   4.719  57.2650  0.00  0.00     0.000 C
ENDROOT
BRANCH 1 16
ATOM     16  O4  BGC C   2      40.274   7.970  56.1910  0.00  0.00     0.000 O
BRANCH 16 20
ATOM     17  C1  BGC C   2      39.895  10.758  53.2320  0.00  0.00     0.000 C
ATOM     18  C2  BGC C   2      38.595  10.243  53.8310  0.00  0.00     0.000 C
ATOM     19  C3  BGC C   2      38.857   9.509  55.1380  0.00  0.00     0.000 C
ATOM     20  C4  BGC C   2      39.914   8.477  54.9280  0.00  0.00     0.000 C
ATOM     21  C5  BGC C   2      41.143   9.080  54.2550  0.00  0.00     0.000 C
ATOM     22  O5  BGC C   2      40.797   9.705  53.0550  0.00  0.00     0.000 O
ATOM     23   O  BGC C   2      37.712  11.354  54.0470  0.00  0.00     0.000 O
ATOM     25  HD  BGC C   2      37.298  11.262  54.8020  0.00  0.00     0.000 HD
ATOM     25   O  BGC C   2      37.654   8.885  55.5720  0.00  0.00     0.000 O
ATOM     27  HD  BGC C   2      37.240   8.792  56.3270  0.00  0.00     0.000 HD
ATOM     27   C  BGC C   2      42.285   8.080  53.9790  0.00  0.00     0.000 C
ATOM     28   O  BGC C   2      41.816   6.950  53.2260  0.00  0.00     0.000 O
ATOM     30  HD  BGC C   2      41.402   6.857  53.9810  0.00  0.00     0.000 HD
BRANCH 17 30
ATOM     30  O4  BGC C   3      39.630  11.340  51.9740  0.00  0.00     0.000 O
BRANCH 30 34
ATOM     31  C1  BGC C   3      40.805  14.417  49.6310  0.00  0.00     0.000 C
ATOM     32  C2  BGC C   3      41.672  13.138  49.5440  0.00  0.00     0.000 C
ATOM     33  C3  BGC C   3      40.977  11.973  50.1570  0.00  0.00     0.000 C
ATOM     34  C4  BGC C   3      40.513  12.372  51.5610  0.00  0.00     0.000 C
ATOM     35  C5  BGC C   3      39.757  13.724  51.6090  0.00  0.00     0.000 C
ATOM     36  O5  BGC C   3      40.512  14.724  50.9710  0.00  0.00     0.000 O
ATOM     37   O  BGC C   3      42.118  12.714  48.2700  0.00  0.00     0.000 O
ATOM     39  HD  BGC C   3      41.825  12.471  49.0470  0.00  0.00     0.000 HD
ATOM     39   O  BGC C   3      41.869  10.821  50.2060  0.00  0.00     0.000 O
ATOM     41  HD  BGC C   3      41.576  10.578  50.9830  0.00  0.00     0.000 HD
ATOM     41   C  BGC C   3      39.435  14.246  53.0280  0.00  0.00     0.000 C
ATOM     42   O  BGC C   3      40.608  14.573  53.8570  0.00  0.00     0.000 O
ATOM     44  HD  BGC C   3      40.314  14.330  54.6340  0.00  0.00     0.000 HD
BRANCH 31 44
ATOM     44  O4  BGC C   4      41.457  15.500  49.0560  0.00  0.00     0.000 O
BRANCH 44 48
ATOM     45  C1  BGC C   4      40.971  18.867  46.7780  0.00  0.00     0.000 C
ATOM     46  C2  BGC C   4      40.355  19.050  48.2020  0.00  0.00     0.000 C
ATOM     47  C3  BGC C   4      40.916  17.833  48.9490  0.00  0.00     0.000 C
ATOM     48  C4  BGC C   4      40.752  16.461  48.3260  0.00  0.00     0.000 C
ATOM     49  C5  BGC C   4      41.421  16.536  46.9440  0.00  0.00     0.000 C
ATOM     50  O5  BGC C   4      40.881  17.562  46.1860  0.00  0.00     0.000 O
ATOM     51   O  BGC C   4      40.615  20.291  49.0740  0.00  0.00     0.000 O
ATOM     53  HD  BGC C   4      40.301  20.188  49.8740  0.00  0.00     0.000 HD
ATOM     53   O  BGC C   4      39.991  17.813  50.1360  0.00  0.00     0.000 O
ATOM     55  HD  BGC C   4      39.677  17.710  50.9360  0.00  0.00     0.000 HD
ATOM     55   C  BGC C   4      41.183  15.278  46.1500  0.00  0.00     0.000 C
ATOM     56   O  BGC C   4      39.810  14.914  45.9620  0.00  0.00     0.000 O
ATOM     58  HD  BGC C   4      39.496  14.811  46.7630  0.00  0.00     0.000 HD
BRANCH 45 58
ATOM     58  O4  BGC C   5      40.404  19.736  45.8430  0.00  0.00     0.000 O
BRANCH 58 62
ATOM     59  C1  BGC C   5      41.525  22.546  46.2910  0.00  0.00     0.000 C
ATOM     60  C2  BGC C   5      40.637  22.637  45.1520  0.00  0.00     0.000 C
ATOM     61  C3  BGC C   5      40.810  21.501  44.1470  0.00  0.00     0.000 C
ATOM     62  C4  BGC C   5      41.339  20.274  44.8760  0.00  0.00     0.000 C
ATOM     63  C5  BGC C   5      42.452  20.739  45.7870  0.00  0.00     0.000 C
ATOM     64  O5  BGC C   5      42.568  22.135  46.0560  0.00  0.00     0.000 O
ATOM     65   O  BGC C   5      44.154  20.769  44.0730  0.00  0.00     0.000 O
ATOM     67  HD  BGC C   5      43.772  20.321  44.7070  0.00  0.00     0.000 HD
ATOM     67   O  BGC C   5      44.154  20.769  44.0730  0.00  0.00     0.000 O
ATOM     69  HD  BGC C   5      43.772  20.321  44.7070  0.00  0.00     0.000 HD
ENDBRANCH 58 62
ENDBRANCH 45 58
ENDBRANCH 44 48
ENDBRANCH 31 44
ENDBRANCH 30 34
ENDBRANCH 17 30
ENDBRANCH 16 20
ENDBRANCH 1 16
TORSDOF 8
ENDMDL
MODEL 73
REMARK VINA RESULT:      -0.2     42.705     44.706
ROOT
ATOM      1  C1  BGC C   1       5.110  24.074  48.2000  0.00  0.00     0.000 C
ATOM      2  C2  BGC C   1       5.248  25.523  48.6640  0.00  0.00     0.000 C
ATOM      3  C3  BGC C   1       4.002  25.946  49.4320  0.00  0.00     0.000 C
ATOM      4  C4  BGC C   1       2.724  25.632  48.6730  0.00  0.00     0.000 C
ATOM      5  C5  BGC C   1       2.771  24.209  48.1250  0.00  0.00     0.000 C
ATOM      6  O5  BGC C   1       3.958  23.899  47.4670  0.00  0.00     0.000 O
ATOM      7   O  BGC C   1       6.383  25.594  49.4950  0.00  0.00     0.000 O
ATOM      9  HD  BGC C   1       5.992  26.259  49.1010  0.00  0.00     0.000 HD
ATOM      9   O  BGC C   1       4.118  27.343  49.7330  0.00  0.00     0.000 O
ATOM     11  HD  BGC C   1       3.727  28.008  49.3400  0.00  0.00     0.000 HD
ATOM     11   O  BGC C   1       1.649  25.792  49.5920  0.00  0.00     0.000 O
ATOM     13  HD  BGC C   1       1.258  26.457  49.1980  0.00  0.00     0.000 HD
ATOM     13   O  BGC C   1       1.794  24.832  45.9350  0.00  0.00     0.000 O
ATOM     15  HD  BGC C   1       1.403  25.497  45.5420  0.00  0.00     0.000 HD
ATOM     15   C  BGC C   1       1.603  24.036  47.1380  0.00  0.00     0.000 C
ENDROOT
BRANCH 1 16
ATOM     16  O4  BGC C   2       6.190  23.769  47.3480  0.00  0.00     0.000 O
BRANCH 16 20
ATOM     17  C1  BGC C   2       8.460  20.515  46.3820  0.00  0.00     0.000 C
ATOM     18  C2  BGC C   2       7.124  20.630  45.6650  0.00  0.00     0.000 C
ATOM     19  C3  BGC C   2       6.547  22.030  45.8200  0.00  0.00     0.000 C
ATOM     20  C4  BGC C   2       6.528  22.405  47.2640  0.00  0.00     0.000 C
ATOM     21  C5  BGC C   2       7.894  22.180  47.9070  0.00  0.00     0.000 C
ATOM     22  O5  BGC C   2       8.317  20.862  47.7300  0.00  0.00     0.000 O
ATOM     23   O  BGC C   2       7.315  20.317  44.2770  0.00  0.00     0.000 O
ATOM     25  HD  BGC C   2       6.850  20.856  43.7840  0.00  0.00     0.000 HD
ATOM     25   O  BGC C   2       5.223  22.050  45.3000  0.00  0.00     0.000 O
ATOM     27  HD  BGC C   2       4.757  22.588  44.8080  0.00  0.00     0.000 HD
ATOM     27   C  BGC C   2       7.965  22.524  49.4090  0.00  0.00     0.000 C
ATOM     28   O  BGC C   2       6.952  21.826  50.1510  0.00  0.00     0.000 O
ATOM     30  HD  BGC C   2       6.486  22.365  49.6580  0.00  0.00     0.000 HD
BRANCH 17 30
ATOM     30  O4  BGC C   3       8.915  19.181  46.3070  0.00  0.00     0.000 O
BRANCH 30 34
ATOM     31  C1  BGC C   3      12.326  17.049  45.9060  0.00  0.00     0.000 C
ATOM     32  C2  BGC C   3      11.982  17.499  47.3460  0.00  0.00     0.000 C
ATOM     33  C3  BGC C   3      10.569  17.960  47.4430  0.00  0.00     0.000 C
ATOM     34  C4  BGC C   3      10.322  18.995  46.3430  0.00  0.00     0.000 C
ATOM     35  C5  BGC C   3      10.800  18.543  44.9390  0.00  0.00     0.000 C
ATOM     36  O5  BGC C   3      12.136  18.108  45.0000  0.00  0.00     0.000 O
ATOM     37   O  BGC C   3      12.177  16.577  48.4020  0.00  0.00     0.000 O
ATOM     39  HD  BGC C   3      11.677  17.206  48.0780  0.00  0.00     0.000 HD
ATOM     39   O  BGC C   3      10.312  18.523  48.7630  0.00  0.00     0.000 O
ATOM     41  HD  BGC C   3       9.812  19.152  48.4390  0.00  0.00     0.000 HD
ATOM     41   C  BGC C   3      10.735  19.630  43.8420  0.00  0.00     0.000 C
ATOM     42   O  BGC C   3      11.616  20.790  44.0560  0.00  0.00     0.000 O
ATOM     44  HD  BGC C   3      11.116  21.419  43.7320  0.00  0.00     0.000 HD
BRANCH 31 44
ATOM     44  O4  BGC C   4      13.643  16.618  45.8200  0.00  0.00     0.000 O
BRANCH 44 48
ATOM     45  C1  BGC C   4      16.153  13.855  44.1390  0.00  0.00     0.000 C
ATOM     46  C2  BGC C   4      15.644  14.882  43.0770  0.00  0.00     0.000 C
ATOM     47  C3  BGC C   4      15.005  15.962  43.9600  0.00  0.00     0.000 C
ATOM     48  C4  BGC C   4      13.997  15.537  45.0090  0.00  0.00     0.000 C
ATOM     49  C5  BGC C   4      14.722  14.530  45.9160  0.00  0.00     0.000 C
ATOM     50  O5  BGC C   4      15.237  13.477  45.1780  0.00  0.00     0.000 O
ATOM     51   O  BGC C   4      16.580  15.591  42.0810  0.00  0.00     0.000 O
ATOM     53  HD  BGC C   4      16.166  16.211  41.6420  0.00  0.00     0.000 HD
ATOM     53   O  BGC C   4      14.183  16.683  42.9270  0.00  0.00     0.000 O
ATOM     55  HD  BGC C   4      13.768  17.304  42.4880  0.00  0.00     0.000 HD
ATOM     55   C  BGC C   4      13.776  13.903  46.9080  0.00  0.00     0.000 C
ATOM     56   O  BGC C   4      12.630  13.253  46.3450  0.00  0.00     0.000 O
ATOM     58  HD  BGC C   4      12.215  13.874  45.9060  0.00  0.00     0.000 HD
BRANCH 45 58
ATOM     58  O4  BGC C   5      16.565  12.655  43.5550  0.00  0.00     0.000 O
BRANCH 58 62
ATOM     59  C1  BGC C   5      19.287  13.077  42.2270  0.00  0.00     0.000 C
ATOM     60  C2  BGC C   5      18.950  11.683  42.0350  0.00  0.00     0.000 C
ATOM     61  C3  BGC C   5      18.401  11.007  43.2890  0.00  0.00     0.000 C
ATOM     62  C4  BGC C   5      17.737  12.059  44.1650  0.00  0.00     0.000 C
ATOM     63  C5  BGC C   5      18.665  13.251  44.2170  0.00  0.00     0.000 C
ATOM     64  O5  BGC C   5      19.717  13.331  43.2580  0.00  0.00     0.000 O
ATOM     65   O  BGC C   5      20.097  12.351  45.9420  0.00  0.00     0.000 O
ATOM     67  HD  BGC C   5      19.412  12.846  45.7540  0.00  0.00     0.000 HD
ATOM     67   O  BGC C   5      20.097  12.351  45.9420  0.00  0.00     0.000 O
ATOM     69  HD  BGC C   5      19.412  12.846  45.7540  0.00  0.00     0.000 HD
ENDBRANCH 58 62
ENDBRANCH 45 58
ENDBRANCH 44 48
ENDBRANCH 31 44
ENDBRANCH 30 34
ENDBRANCH 17 30
ENDBRANCH 16 20
ENDBRANCH 1 16
TORSDOF 8
ENDMDL
MODEL 74
REMARK VINA RESULT:      -0.2     67.428     73.741
ROOT
ATOM      1  C1  BGC C   1      50.994  34.963  53.1160  0.00  0.00     0.000 C
ATOM      2  C2  BGC C   1      51.497  33.521  53.0660  0.00  0.00     0.000 C
ATOM      3  C3  BGC C   1      52.664  33.408  52.0920  0.00  0.00     0.000 C
ATOM      4  C4  BGC C   1      52.347  34.026  50.7410  0.00  0.00     0.000 C
ATOM      5  C5  BGC C   1      51.707  35.399  50.9260  0.00  0.00     0.000 C
ATOM      6  O5  BGC C   1      50.672  35.416  51.8570  0.00  0.00     0.000 O
ATOM      7   O  BGC C   1      51.909  33.172  54.3660  0.00  0.00     0.000 O
ATOM      9  HD  BGC C   1      51.719  32.624  53.7230  0.00  0.00     0.000 HD
ATOM      9   O  BGC C   1      53.016  32.022  51.9790  0.00  0.00     0.000 O
ATOM     11  HD  BGC C   1      52.826  31.474  51.3360  0.00  0.00     0.000 HD
ATOM     11   O  BGC C   1      53.579  34.126  50.0350  0.00  0.00     0.000 O
ATOM     13  HD  BGC C   1      53.389  33.578  49.3920  0.00  0.00     0.000 HD
ATOM     13   O  BGC C   1      50.017  35.045  49.1490  0.00  0.00     0.000 O
ATOM     15  HD  BGC C   1      49.827  34.497  48.5060  0.00  0.00     0.000 HD
ATOM     15   C  BGC C   1      51.151  35.856  49.5650  0.00  0.00     0.000 C
ENDROOT
BRANCH 1 16
ATOM     16  O4  BGC C   2      49.814  35.002  53.8820  0.00  0.00     0.000 O
BRANCH 16 20
ATOM     17  C1  BGC C   2      47.906  37.614  56.3740  0.00  0.00     0.000 C
ATOM     18  C2  BGC C   2      47.681  37.831  54.8860  0.00  0.00     0.000 C
ATOM     19  C3  BGC C   2      48.125  36.612  54.0900  0.00  0.00     0.000 C
ATOM     20  C4  BGC C   2      49.518  36.244  54.4760  0.00  0.00     0.000 C
ATOM     21  C5  BGC C   2      49.654  36.127  55.9910  0.00  0.00     0.000 C
ATOM     22  O5  BGC C   2      49.247  37.304  56.6210  0.00  0.00     0.000 O
ATOM     23   O  BGC C   2      46.288  38.096  54.6620  0.00  0.00     0.000 O
ATOM     25  HD  BGC C   2      46.019  37.690  53.9460  0.00  0.00     0.000 HD
ATOM     25   O  BGC C   2      48.074  36.917  52.7010  0.00  0.00     0.000 O
ATOM     27  HD  BGC C   2      47.806  36.510  51.9860  0.00  0.00     0.000 HD
ATOM     27   C  BGC C   2      51.070  35.767  56.4870  0.00  0.00     0.000 C
ATOM     28   O  BGC C   2      52.050  36.685  55.9740  0.00  0.00     0.000 O
ATOM     30  HD  BGC C   2      51.781  36.278  55.2580  0.00  0.00     0.000 HD
BRANCH 17 30
ATOM     30  O4  BGC C   3      47.583  38.799  57.0710  0.00  0.00     0.000 O
BRANCH 30 34
ATOM     31  C1  BGC C   3      45.916  40.043  60.5370  0.00  0.00     0.000 C
ATOM     32  C2  BGC C   3      47.418  39.681  60.6070  0.00  0.00     0.000 C
ATOM     33  C3  BGC C   3      48.011  39.576  59.2450  0.00  0.00     0.000 C
ATOM     34  C4  BGC C   3      47.137  38.638  58.4090  0.00  0.00     0.000 C
ATOM     35  C5  BGC C   3      45.624  38.970  58.4740  0.00  0.00     0.000 C
ATOM     36  O5  BGC C   3      45.207  39.068  59.8130  0.00  0.00     0.000 O
ATOM     37   O  BGC C   3      48.278  40.521  61.3550  0.00  0.00     0.000 O
ATOM     39  HD  BGC C   3      48.186  40.034  60.6450  0.00  0.00     0.000 HD
ATOM     39   O  BGC C   3      49.381  39.083  59.3290  0.00  0.00     0.000 O
ATOM     41  HD  BGC C   3      49.289  38.596  58.6180  0.00  0.00     0.000 HD
ATOM     41   C  BGC C   3      44.696  37.939  57.7920  0.00  0.00     0.000 C
ATOM     42   O  BGC C   3      44.695  36.598  58.4010  0.00  0.00     0.000 O
ATOM     44  HD  BGC C   3      44.603  36.111  57.6910  0.00  0.00     0.000 HD
BRANCH 31 44
ATOM     44  O4  BGC C   4      45.367  40.142  61.8090  0.00  0.00     0.000 O
BRANCH 44 48
ATOM     45  C1  BGC C   4      42.746  42.226  64.1640  0.00  0.00     0.000 C
ATOM     46  C2  BGC C   4      41.993  41.360  63.1030  0.00  0.00     0.000 C
ATOM     47  C3  BGC C   4      43.117  40.461  62.5710  0.00  0.00     0.000 C
ATOM     48  C4  BGC C   4      44.405  41.111  62.1050  0.00  0.00     0.000 C
ATOM     49  C5  BGC C   4      44.942  41.906  63.3060  0.00  0.00     0.000 C
ATOM     50  O5  BGC C   4      43.997  42.807  63.7690  0.00  0.00     0.000 O
ATOM     51   O  BGC C   4      40.801  40.453  63.4560  0.00  0.00     0.000 O
ATOM     53  HD  BGC C   4      40.572  39.954  62.7860  0.00  0.00     0.000 HD
ATOM     53   O  BGC C   4      42.472  39.968  61.3050  0.00  0.00     0.000 O
ATOM     55  HD  BGC C   4      42.244  39.469  60.6350  0.00  0.00     0.000 HD
ATOM     55   C  BGC C   4      46.140  42.737  62.9240  0.00  0.00     0.000 C
ATOM     56   O  BGC C   4      45.940  43.649  61.8380  0.00  0.00     0.000 O
ATOM     58  HD  BGC C   4      45.711  43.150  61.1680  0.00  0.00     0.000 HD
BRANCH 45 58
ATOM     58  O4  BGC C   5      41.969  43.294  64.6180  0.00  0.00     0.000 O
BRANCH 58 62
ATOM     59  C1  BGC C   5      39.852  42.232  66.5520  0.00  0.00     0.000 C
ATOM     60  C2  BGC C   5      39.676  43.668  66.5020  0.00  0.00     0.000 C
ATOM     61  C3  BGC C   5      40.986  44.448  66.5820  0.00  0.00     0.000 C
ATOM     62  C4  BGC C   5      42.110  43.583  66.0310  0.00  0.00     0.000 C
ATOM     63  C5  BGC C   5      41.943  42.202  66.6200  0.00  0.00     0.000 C
ATOM     64  O5  BGC C   5      40.698  41.875  67.2350  0.00  0.00     0.000 O
ATOM     65   O  BGC C   5      43.023  42.715  68.7190  0.00  0.00     0.000 O
ATOM     67  HD  BGC C   5      43.110  42.403  67.9160  0.00  0.00     0.000 HD
ATOM     67   O  BGC C   5      43.023  42.715  68.7190  0.00  0.00     0.000 O
ATOM     69  HD  BGC C   5      43.110  42.403  67.9160  0.00  0.00     0.000 HD
ENDBRANCH 58 62
ENDBRANCH 45 58
ENDBRANCH 44 48
ENDBRANCH 31 44
ENDBRANCH 30 34
ENDBRANCH 17 30
ENDBRANCH 16 20
ENDBRANCH 1 16
TORSDOF 8
ENDMDL
MODEL 75
REMARK VINA RESULT:      -0.2     50.460     55.175
ROOT
ATOM      1  C1  BGC C   1      52.842  39.752  21.4000  0.00  0.00     0.000 C
ATOM      2  C2  BGC C   1      52.595  40.156  19.9470  0.00  0.00     0.000 C
ATOM      3  C3  BGC C   1      53.829  39.853  19.1050  0.00  0.00     0.000 C
ATOM      4  C4  BGC C   1      55.099  40.415  19.7230  0.00  0.00     0.000 C
ATOM      5  C5  BGC C   1      55.155  40.078  21.2110  0.00  0.00     0.000 C
ATOM      6  O5  BGC C   1      53.974  40.356  21.8950  0.00  0.00     0.000 O
ATOM      7   O  BGC C   1      51.493  39.413  19.4830  0.00  0.00     0.000 O
ATOM      9  HD  BGC C   1      51.809  40.139  19.1310  0.00  0.00     0.000 HD
ATOM      9   O  BGC C   1      53.603  40.366  17.7850  0.00  0.00     0.000 O
ATOM     11  HD  BGC C   1      53.919  41.092  17.4330  0.00  0.00     0.000 HD
ATOM     11   O  BGC C   1      56.191  39.828  19.0240  0.00  0.00     0.000 O
ATOM     13  HD  BGC C   1      56.507  40.554  18.6730  0.00  0.00     0.000 HD
ATOM     13   O  BGC C   1      55.986  42.319  21.8640  0.00  0.00     0.000 O
ATOM     15  HD  BGC C   1      56.302  43.045  21.5120  0.00  0.00     0.000 HD
ATOM     15   C  BGC C   1      56.294  40.898  21.8450  0.00  0.00     0.000 C
ENDROOT
BRANCH 1 16
ATOM     16  O4  BGC C   2      51.760  40.202  22.1820  0.00  0.00     0.000 O
BRANCH 16 20
ATOM     17  C1  BGC C   2      49.746  39.021  25.5320  0.00  0.00     0.000 C
ATOM     18  C2  BGC C   2      51.038  39.788  25.7690  0.00  0.00     0.000 C
ATOM     19  C3  BGC C   2      51.496  40.480  24.4930  0.00  0.00     0.000 C
ATOM     20  C4  BGC C   2      51.539  39.491  23.3760  0.00  0.00     0.000 C
ATOM     21  C5  BGC C   2      50.225  38.722  23.2740  0.00  0.00     0.000 C
ATOM     22  O5  BGC C   2      49.911  38.106  24.4870  0.00  0.00     0.000 O
ATOM     23   O  BGC C   2      50.820  40.752  26.8110  0.00  0.00     0.000 O
ATOM     25  HD  BGC C   2      51.217  41.496  26.6150  0.00  0.00     0.000 HD
ATOM     25   O  BGC C   2      52.792  41.030  24.6990  0.00  0.00     0.000 O
ATOM     27  HD  BGC C   2      53.189  41.774  24.5030  0.00  0.00     0.000 HD
ATOM     27   C  BGC C   2      50.183  37.660  22.1560  0.00  0.00     0.000 C
ATOM     28   O  BGC C   2      51.282  36.742  22.2700  0.00  0.00     0.000 O
ATOM     30  HD  BGC C   2      51.679  37.486  22.0740  0.00  0.00     0.000 HD
BRANCH 17 30
ATOM     30  O4  BGC C   3      49.407  38.309  26.7030  0.00  0.00     0.000 O
BRANCH 30 34
ATOM     31  C1  BGC C   3      46.183  37.186  28.8670  0.00  0.00     0.000 C
ATOM     32  C2  BGC C   3      46.543  36.268  27.6740  0.00  0.00     0.000 C
ATOM     33  C3  BGC C   3      47.913  36.558  27.1670  0.00  0.00     0.000 C
ATOM     34  C4  BGC C   3      48.024  38.062  26.9080  0.00  0.00     0.000 C
ATOM     35  C5  BGC C   3      47.532  38.937  28.0900  0.00  0.00     0.000 C
ATOM     36  O5  BGC C   3      46.243  38.538  28.4840  0.00  0.00     0.000 O
ATOM     37   O  BGC C   3      46.472  34.867  27.8590  0.00  0.00     0.000 O
ATOM     39  HD  BGC C   3      46.901  35.523  27.4930  0.00  0.00     0.000 HD
ATOM     39   O  BGC C   3      48.172  35.795  25.9510  0.00  0.00     0.000 O
ATOM     41  HD  BGC C   3      48.602  36.452  25.5850  0.00  0.00     0.000 HD
ATOM     41   C  BGC C   3      47.458  40.453  27.7970  0.00  0.00     0.000 C
ATOM     42   O  BGC C   3      46.488  40.846  26.7600  0.00  0.00     0.000 O
ATOM     44  HD  BGC C   3      46.918  41.502  26.3940  0.00  0.00     0.000 HD
BRANCH 31 44
ATOM     44  O4  BGC C   4      44.905  36.911  29.3380  0.00  0.00     0.000 O
BRANCH 44 48
ATOM     45  C1  BGC C   4      42.583  36.574  32.6920  0.00  0.00     0.000 C
ATOM     46  C2  BGC C   4      42.957  38.064  32.4060  0.00  0.00     0.000 C
ATOM     47  C3  BGC C   4      43.534  37.980  30.9870  0.00  0.00     0.000 C
ATOM     48  C4  BGC C   4      44.616  36.957  30.7040  0.00  0.00     0.000 C
ATOM     49  C5  BGC C   4      44.018  35.589  31.0700  0.00  0.00     0.000 C
ATOM     50  O5  BGC C   4      43.568  35.578  32.3800  0.00  0.00     0.000 O
ATOM     51   O  BGC C   4      41.924  39.205  32.4220  0.00  0.00     0.000 O
ATOM     53  HD  BGC C   4      42.265  39.946  32.1310  0.00  0.00     0.000 HD
ATOM     53   O  BGC C   4      44.248  39.302  30.9230  0.00  0.00     0.000 O
ATOM     55  HD  BGC C   4      44.589  40.043  30.6320  0.00  0.00     0.000 HD
ATOM     55   C  BGC C   4      45.054  34.498  30.9890  0.00  0.00     0.000 C
ATOM     56   O  BGC C   4      46.229  34.699  31.7830  0.00  0.00     0.000 O
ATOM     58  HD  BGC C   4      46.570  35.440  31.4920  0.00  0.00     0.000 HD
BRANCH 45 58
ATOM     58  O4  BGC C   5      42.254  36.361  34.0330  0.00  0.00     0.000 O
BRANCH 58 62
ATOM     59  C1  BGC C   5      39.455  37.475  34.5600  0.00  0.00     0.000 C
ATOM     60  C2  BGC C   5      39.904  36.891  35.8050  0.00  0.00     0.000 C
ATOM     61  C3  BGC C   5      40.560  35.522  35.6390  0.00  0.00     0.000 C
ATOM     62  C4  BGC C   5      41.164  35.431  34.2460  0.00  0.00     0.000 C
ATOM     63  C5  BGC C   5      40.138  35.970  33.2760  0.00  0.00     0.000 C
ATOM     64  O5  BGC C   5      39.046  36.725  33.7970  0.00  0.00     0.000 O
ATOM     65   O  BGC C   5      38.860  33.926  33.1330  0.00  0.00     0.000 O
ATOM     67  HD  BGC C   5      39.491  34.412  32.7930  0.00  0.00     0.000 HD
ATOM     67   O  BGC C   5      38.860  33.926  33.1330  0.00  0.00     0.000 O
ATOM     69  HD  BGC C   5      39.491  34.412  32.7930  0.00  0.00     0.000 HD
ENDBRANCH 58 62
ENDBRANCH 45 58
ENDBRANCH 44 48
ENDBRANCH 31 44
ENDBRANCH 30 34
ENDBRANCH 17 30
ENDBRANCH 16 20
ENDBRANCH 1 16
TORSDOF 8
ENDMDL
MODEL 76
REMARK VINA RESULT:      -0.2     59.697     63.511
ROOT
ATOM      1  C1  BGC C   1      38.349  35.751  53.9170  0.00  0.00     0.000 C
ATOM      2  C2  BGC C   1      39.256  36.757  54.6240  0.00  0.00     0.000 C
ATOM      3  C3  BGC C   1      40.119  37.489  53.6040  0.00  0.00     0.000 C
ATOM      4  C4  BGC C   1      40.830  36.533  52.6600  0.00  0.00     0.000 C
ATOM      5  C5  BGC C   1      39.854  35.481  52.1400  0.00  0.00     0.000 C
ATOM      6  O5  BGC C   1      39.084  34.888  53.1370  0.00  0.00     0.000 O
ATOM      7   O  BGC C   1      38.426  37.668  55.3060  0.00  0.00     0.000 O
ATOM      9  HD  BGC C   1      39.267  37.525  55.4580  0.00  0.00     0.000 HD
ATOM      9   O  BGC C   1      41.042  38.323  54.3180  0.00  0.00     0.000 O
ATOM     11  HD  BGC C   1      41.882  38.181  54.4700  0.00  0.00     0.000 HD
ATOM     11   O  BGC C   1      41.352  37.319  51.5940  0.00  0.00     0.000 O
ATOM     13  HD  BGC C   1      42.193  37.176  51.7460  0.00  0.00     0.000 HD
ATOM     13   O  BGC C   1      41.470  33.617  52.3680  0.00  0.00     0.000 O
ATOM     15  HD  BGC C   1      42.311  33.475  52.5200  0.00  0.00     0.000 HD
ATOM     15   C  BGC C   1      40.667  34.384  51.4290  0.00  0.00     0.000 C
ENDROOT
BRANCH 1 16
ATOM     16  O4  BGC C   2      37.696  34.971  54.8900  0.00  0.00     0.000 O
BRANCH 16 20
ATOM     17  C1  BGC C   2      34.113  33.064  55.3410  0.00  0.00     0.000 C
ATOM     18  C2  BGC C   2      35.175  32.308  54.5580  0.00  0.00     0.000 C
ATOM     19  C3  BGC C   2      36.547  32.934  54.7650  0.00  0.00     0.000 C
ATOM     20  C4  BGC C   2      36.474  34.398  54.4880  0.00  0.00     0.000 C
ATOM     21  C5  BGC C   2      35.331  35.046  55.2630  0.00  0.00     0.000 C
ATOM     22  O5  BGC C   2      34.118  34.416  54.9810  0.00  0.00     0.000 O
ATOM     23   O  BGC C   2      35.179  30.938  54.9860  0.00  0.00     0.000 O
ATOM     25  HD  BGC C   2      35.993  30.647  55.0450  0.00  0.00     0.000 HD
ATOM     25   O  BGC C   2      37.478  32.322  53.8810  0.00  0.00     0.000 O
ATOM     27  HD  BGC C   2      38.292  32.032  53.9400  0.00  0.00     0.000 HD
ATOM     27   C  BGC C   2      35.165  36.561  55.0240  0.00  0.00     0.000 C
ATOM     28   O  BGC C   2      35.041  36.857  53.6230  0.00  0.00     0.000 O
ATOM     30  HD  BGC C   2      35.855  36.567  53.6820  0.00  0.00     0.000 HD
BRANCH 17 30
ATOM     30  O4  BGC C   3      32.843  32.523  55.0440  0.00  0.00     0.000 O
BRANCH 30 34
ATOM     31  C1  BGC C   3      29.299  31.695  56.8020  0.00  0.00     0.000 C
ATOM     32  C2  BGC C   3      29.478  33.149  56.3050  0.00  0.00     0.000 C
ATOM     33  C3  BGC C   3      30.641  33.264  55.3820  0.00  0.00     0.000 C
ATOM     34  C4  BGC C   3      31.860  32.637  56.0620  0.00  0.00     0.000 C
ATOM     35  C5  BGC C   3      31.591  31.229  56.6530  0.00  0.00     0.000 C
ATOM     36  O5  BGC C   3      30.453  31.260  57.4780  0.00  0.00     0.000 O
ATOM     37   O  BGC C   3      28.387  33.777  55.6560  0.00  0.00     0.000 O
ATOM     39  HD  BGC C   3      29.247  33.672  55.6810  0.00  0.00     0.000 HD
ATOM     39   O  BGC C   3      30.885  34.663  55.0510  0.00  0.00     0.000 O
ATOM     41  HD  BGC C   3      31.745  34.558  55.0750  0.00  0.00     0.000 HD
ATOM     41   C  BGC C   3      32.742  30.644  57.5030  0.00  0.00     0.000 C
ATOM     42   O  BGC C   3      33.054  31.388  58.7350  0.00  0.00     0.000 O
ATOM     44  HD  BGC C   3      33.913  31.283  58.7600  0.00  0.00     0.000 HD
BRANCH 31 44
ATOM     44  O4  BGC C   4      28.213  31.592  57.6610  0.00  0.00     0.000 O
BRANCH 44 48
ATOM     45  C1  BGC C   4      25.047  29.249  58.7780  0.00  0.00     0.000 C
ATOM     46  C2  BGC C   4      26.405  28.625  59.2320  0.00  0.00     0.000 C
ATOM     47  C3  BGC C   4      27.382  29.784  58.9980  0.00  0.00     0.000 C
ATOM     48  C4  BGC C   4      27.385  30.467  57.6440  0.00  0.00     0.000 C
ATOM     49  C5  BGC C   4      25.953  30.982  57.4220  0.00  0.00     0.000 C
ATOM     50  O5  BGC C   4      25.033  29.952  57.5260  0.00  0.00     0.000 O
ATOM     51   O  BGC C   4      26.648  28.093  60.6560  0.00  0.00     0.000 O
ATOM     53  HD  BGC C   4      27.481  27.889  60.7810  0.00  0.00     0.000 HD
ATOM     53   O  BGC C   4      28.685  29.033  59.0350  0.00  0.00     0.000 O
ATOM     55  HD  BGC C   4      29.517  28.829  59.1600  0.00  0.00     0.000 HD
ATOM     55   C  BGC C   4      25.780  31.540  56.0330  0.00  0.00     0.000 C
ATOM     56   O  BGC C   4      26.105  30.647  54.9610  0.00  0.00     0.000 O
ATOM     58  HD  BGC C   4      26.937  30.443  55.0860  0.00  0.00     0.000 HD
BRANCH 45 58
ATOM     58  O4  BGC C   5      24.035  28.292  58.6760  0.00  0.00     0.000 O
BRANCH 58 62
ATOM     59  C1  BGC C   5      23.090  27.540  61.4850  0.00  0.00     0.000 C
ATOM     60  C2  BGC C   5      22.272  26.783  60.5620  0.00  0.00     0.000 C
ATOM     61  C3  BGC C   5      21.758  27.605  59.3830  0.00  0.00     0.000 C
ATOM     62  C4  BGC C   5      22.731  28.744  59.1150  0.00  0.00     0.000 C
ATOM     63  C5  BGC C   5      23.080  29.359  60.4510  0.00  0.00     0.000 C
ATOM     64  O5  BGC C   5      22.766  28.628  61.6350  0.00  0.00     0.000 O
ATOM     65   O  BGC C   5      21.103  30.740  60.5920  0.00  0.00     0.000 O
ATOM     67  HD  BGC C   5      21.935  30.686  60.3580  0.00  0.00     0.000 HD
ATOM     67   O  BGC C   5      21.103  30.740  60.5920  0.00  0.00     0.000 O
ATOM     69  HD  BGC C   5      21.935  30.686  60.3580  0.00  0.00     0.000 HD
ENDBRANCH 58 62
ENDBRANCH 45 58
ENDBRANCH 44 48
ENDBRANCH 31 44
ENDBRANCH 30 34
ENDBRANCH 17 30
ENDBRANCH 16 20
ENDBRANCH 1 16
TORSDOF 8
ENDMDL
MODEL 77
REMARK VINA RESULT:      -0.2     29.324     31.969
ROOT
ATOM      1  C1  BGC C   1       8.823  25.545  20.0710  0.00  0.00     0.000 C
ATOM      2  C2  BGC C   1       8.230  25.752  18.6780  0.00  0.00     0.000 C
ATOM      3  C3  BGC C   1       6.754  25.373  18.6760  0.00  0.00     0.000 C
ATOM      4  C4  BGC C   1       6.512  24.000  19.2810  0.00  0.00     0.000 C
ATOM      5  C5  BGC C   1       7.280  23.859  20.5930  0.00  0.00     0.000 C
ATOM      6  O5  BGC C   1       8.611  24.258  20.5100  0.00  0.00     0.000 O
ATOM      7   O  BGC C   1       8.386  27.112  18.3500  0.00  0.00     0.000 O
ATOM      9  HD  BGC C   1       8.237  26.464  17.7950  0.00  0.00     0.000 HD
ATOM      9   O  BGC C   1       6.275  25.456  17.3270  0.00  0.00     0.000 O
ATOM     11  HD  BGC C   1       6.126  24.808  16.7730  0.00  0.00     0.000 HD
ATOM     11   O  BGC C   1       5.110  23.886  19.4950  0.00  0.00     0.000 O
ATOM     13  HD  BGC C   1       4.961  23.237  18.9400  0.00  0.00     0.000 HD
ATOM     13   O  BGC C   1       8.012  21.540  20.1160  0.00  0.00     0.000 O
ATOM     15  HD  BGC C   1       7.864  20.892  19.5620  0.00  0.00     0.000 HD
ATOM     15   C  BGC C   1       7.237  22.379  21.0160  0.00  0.00     0.000 C
ENDROOT
BRANCH 1 16
ATOM     16  O4  BGC C   2      10.216  25.732  20.0000  0.00  0.00     0.000 O
BRANCH 16 20
ATOM     17  C1  BGC C   2      13.215  27.103  22.4100  0.00  0.00     0.000 C
ATOM     18  C2  BGC C   2      12.799  25.656  22.6240  0.00  0.00     0.000 C
ATOM     19  C3  BGC C   2      11.958  25.158  21.4570  0.00  0.00     0.000 C
ATOM     20  C4  BGC C   2      10.839  26.111  21.2050  0.00  0.00     0.000 C
ATOM     21  C5  BGC C   2      11.354  27.542  21.0820  0.00  0.00     0.000 C
ATOM     22  O5  BGC C   2      12.087  27.907  22.2130  0.00  0.00     0.000 O
ATOM     23   O  BGC C   2      13.978  24.852  22.7730  0.00  0.00     0.000 O
ATOM     25  HD  BGC C   2      13.880  24.100  22.3530  0.00  0.00     0.000 HD
ATOM     25   O  BGC C   2      11.435  23.873  21.7730  0.00  0.00     0.000 O
ATOM     27  HD  BGC C   2      11.337  23.122  21.3530  0.00  0.00     0.000 HD
ATOM     27   C  BGC C   2      10.262  28.604  20.8390  0.00  0.00     0.000 C
ATOM     28   O  BGC C   2       9.236  28.535  21.8430  0.00  0.00     0.000 O
ATOM     30  HD  BGC C   2       9.139  27.784  21.4230  0.00  0.00     0.000 HD
BRANCH 17 30
ATOM     30  O4  BGC C   3      13.901  27.564  23.5540  0.00  0.00     0.000 O
BRANCH 30 34
ATOM     31  C1  BGC C   3      16.987  29.952  24.6100  0.00  0.00     0.000 C
ATOM     32  C2  BGC C   3      15.634  30.667  24.3780  0.00  0.00     0.000 C
ATOM     33  C3  BGC C   3      14.509  29.692  24.3400  0.00  0.00     0.000 C
ATOM     34  C4  BGC C   3      14.861  28.587  23.3400  0.00  0.00     0.000 C
ATOM     35  C5  BGC C   3      16.278  27.991  23.5400  0.00  0.00     0.000 C
ATOM     36  O5  BGC C   3      17.234  29.020  23.5860  0.00  0.00     0.000 O
ATOM     37   O  BGC C   3      15.250  31.688  25.2790  0.00  0.00     0.000 O
ATOM     39  HD  BGC C   3      14.988  31.019  24.7950  0.00  0.00     0.000 HD
ATOM     39   O  BGC C   3      13.271  30.365  23.9650  0.00  0.00     0.000 O
ATOM     41  HD  BGC C   3      13.010  29.697  23.4810  0.00  0.00     0.000 HD
ATOM     41   C  BGC C   3      16.736  27.006  22.4410  0.00  0.00     0.000 C
ATOM     42   O  BGC C   3      16.887  27.591  21.0980  0.00  0.00     0.000 O
ATOM     44  HD  BGC C   3      16.626  26.922  20.6130  0.00  0.00     0.000 HD
BRANCH 31 44
ATOM     44  O4  BGC C   4      18.033  30.865  24.6470  0.00  0.00     0.000 O
BRANCH 44 48
ATOM     45  C1  BGC C   4      21.572  31.819  26.4690  0.00  0.00     0.000 C
ATOM     46  C2  BGC C   4      21.724  30.562  25.5540  0.00  0.00     0.000 C
ATOM     47  C3  BGC C   4      20.410  30.585  24.7620  0.00  0.00     0.000 C
ATOM     48  C4  BGC C   4      19.105  30.697  25.5260  0.00  0.00     0.000 C
ATOM     49  C5  BGC C   4      19.202  31.990  26.3510  0.00  0.00     0.000 C
ATOM     50  O5  BGC C   4      20.324  31.980  27.1620  0.00  0.00     0.000 O
ATOM     51   O  BGC C   4      22.873  30.396  24.5430  0.00  0.00     0.000 O
ATOM     53  HD  BGC C   4      22.751  29.706  24.0340  0.00  0.00     0.000 HD
ATOM     53   O  BGC C   4      20.408  29.178  24.2290  0.00  0.00     0.000 O
ATOM     55  HD  BGC C   4      20.286  28.488  23.7200  0.00  0.00     0.000 HD
ATOM     55   C  BGC C   4      18.029  32.133  27.2850  0.00  0.00     0.000 C
ATOM     56   O  BGC C   4      17.820  31.042  28.1890  0.00  0.00     0.000 O
ATOM     58  HD  BGC C   4      17.698  30.352  27.6810  0.00  0.00     0.000 HD
BRANCH 45 58
ATOM     58  O4  BGC C   5      22.553  31.870  27.4620  0.00  0.00     0.000 O
BRANCH 58 62
ATOM     59  C1  BGC C   5      25.199  32.743  26.1990  0.00  0.00     0.000 C
ATOM     60  C2  BGC C   5      25.454  32.584  27.6140  0.00  0.00     0.000 C
ATOM     61  C3  BGC C   5      24.374  33.195  28.5040  0.00  0.00     0.000 C
ATOM     62  C4  BGC C   5      23.055  33.200  27.7460  0.00  0.00     0.000 C
ATOM     63  C5  BGC C   5      23.343  33.698  26.3480  0.00  0.00     0.000 C
ATOM     64  O5  BGC C   5      24.699  33.731  25.9080  0.00  0.00     0.000 O
ATOM     65   O  BGC C   5      23.310  36.042  26.9290  0.00  0.00     0.000 O
ATOM     67  HD  BGC C   5      22.863  35.362  26.6350  0.00  0.00     0.000 HD
ATOM     67   O  BGC C   5      23.310  36.042  26.9290  0.00  0.00     0.000 O
ATOM     69  HD  BGC C   5      22.863  35.362  26.6350  0.00  0.00     0.000 HD
ENDBRANCH 58 62
ENDBRANCH 45 58
ENDBRANCH 44 48
ENDBRANCH 31 44
ENDBRANCH 30 34
ENDBRANCH 17 30
ENDBRANCH 16 20
ENDBRANCH 1 16
TORSDOF 8
ENDMDL
MODEL 78
REMARK VINA RESULT:      -0.2     31.074     33.729
ROOT
ATOM      1  C1  BGC C   1       8.437  27.193  19.7540  0.00  0.00     0.000 C
ATOM      2  C2  BGC C   1       7.884  27.027  18.3390  0.00  0.00     0.000 C
ATOM      3  C3  BGC C   1       6.438  26.549  18.3970  0.00  0.00     0.000 C
ATOM      4  C4  BGC C   1       6.268  25.339  19.3010  0.00  0.00     0.000 C
ATOM      5  C5  BGC C   1       6.995  25.563  20.6240  0.00  0.00     0.000 C
ATOM      6  O5  BGC C   1       8.298  26.031  20.4770  0.00  0.00     0.000 O
ATOM      7   O  BGC C   1       7.959  28.283  17.7060  0.00  0.00     0.000 O
ATOM      9  HD  BGC C   1       7.875  27.514  17.3160  0.00  0.00     0.000 HD
ATOM      9   O  BGC C   1       6.004  26.282  17.0560  0.00  0.00     0.000 O
ATOM     11  HD  BGC C   1       5.920  25.513  16.6660  0.00  0.00     0.000 HD
ATOM     11   O  BGC C   1       4.870  25.172  19.5070  0.00  0.00     0.000 O
ATOM     13  HD  BGC C   1       4.786  24.404  19.1160  0.00  0.00     0.000 HD
ATOM     13   O  BGC C   1       7.901  23.259  20.7170  0.00  0.00     0.000 O
ATOM     15  HD  BGC C   1       7.817  22.490  20.3260  0.00  0.00     0.000 HD
ATOM     15   C  BGC C   1       7.037  24.223  21.3810  0.00  0.00     0.000 C
ENDROOT
BRANCH 1 16
ATOM     16  O4  BGC C   2       9.816  27.463  19.6700  0.00  0.00     0.000 O
BRANCH 16 20
ATOM     17  C1  BGC C   2      12.623  29.575  21.7520  0.00  0.00     0.000 C
ATOM     18  C2  BGC C   2      12.299  28.190  22.2900  0.00  0.00     0.000 C
ATOM     19  C3  BGC C   2      11.538  27.373  21.2550  0.00  0.00     0.000 C
ATOM     20  C4  BGC C   2      10.367  28.156  20.7650  0.00  0.00     0.000 C
ATOM     21  C5  BGC C   2      10.788  29.554  20.3210  0.00  0.00     0.000 C
ATOM     22  O5  BGC C   2      11.452  30.224  21.3500  0.00  0.00     0.000 O
ATOM     23   O  BGC C   2      13.525  27.532  22.6460  0.00  0.00     0.000 O
ATOM     25  HD  BGC C   2      13.494  26.699  22.4110  0.00  0.00     0.000 HD
ATOM     25   O  BGC C   2      11.093  26.161  21.8520  0.00  0.00     0.000 O
ATOM     27  HD  BGC C   2      11.062  25.328  21.6170  0.00  0.00     0.000 HD
ATOM     27   C  BGC C   2       9.635  30.446  19.8150  0.00  0.00     0.000 C
ATOM     28   O  BGC C   2       8.580  30.535  20.7870  0.00  0.00     0.000 O
ATOM     30  HD  BGC C   2       8.549  29.702  20.5520  0.00  0.00     0.000 HD
BRANCH 17 30
ATOM     30  O4  BGC C   3      13.234  30.338  22.7710  0.00  0.00     0.000 O
BRANCH 30 34
ATOM     31  C1  BGC C   3      16.108  33.130  23.3020  0.00  0.00     0.000 C
ATOM     32  C2  BGC C   3      14.720  33.668  22.8820  0.00  0.00     0.000 C
ATOM     33  C3  BGC C   3      13.666  32.630  23.0500  0.00  0.00     0.000 C
ATOM     34  C4  BGC C   3      14.129  31.353  22.3430  0.00  0.00     0.000 C
ATOM     35  C5  BGC C   3      15.575  30.927  22.7050  0.00  0.00     0.000 C
ATOM     36  O5  BGC C   3      16.456  32.008  22.5280  0.00  0.00     0.000 O
ATOM     37   O  BGC C   3      14.234  34.839  23.5120  0.00  0.00     0.000 O
ATOM     39  HD  BGC C   3      14.037  34.058  23.1920  0.00  0.00     0.000 HD
ATOM     39   O  BGC C   3      12.400  33.103  22.5040  0.00  0.00     0.000 O
ATOM     41  HD  BGC C   3      12.202  32.323  22.1840  0.00  0.00     0.000 HD
ATOM     41   C  BGC C   3      16.140  29.751  21.8750  0.00  0.00     0.000 C
ATOM     42   O  BGC C   3      16.300  30.019  20.4360  0.00  0.00     0.000 O
ATOM     44  HD  BGC C   3      16.103  29.239  20.1160  0.00  0.00     0.000 HD
BRANCH 31 44
ATOM     44  O4  BGC C   4      17.088  34.102  23.1450  0.00  0.00     0.000 O
BRANCH 44 48
ATOM     45  C1  BGC C   4      20.484  35.715  24.7650  0.00  0.00     0.000 C
ATOM     46  C2  BGC C   4      20.755  34.295  24.1710  0.00  0.00     0.000 C
ATOM     47  C3  BGC C   4      19.473  34.035  23.3700  0.00  0.00     0.000 C
ATOM     48  C4  BGC C   4      18.136  34.223  24.0600  0.00  0.00     0.000 C
ATOM     49  C5  BGC C   4      18.114  35.675  24.5620  0.00  0.00     0.000 C
ATOM     50  O5  BGC C   4      19.204  35.938  25.3750  0.00  0.00     0.000 O
ATOM     51   O  BGC C   4      21.950  33.987  23.2500  0.00  0.00     0.000 O
ATOM     53  HD  BGC C   4      21.894  33.190  22.9140  0.00  0.00     0.000 HD
ATOM     53   O  BGC C   4      19.587  32.548  23.1800  0.00  0.00     0.000 O
ATOM     55  HD  BGC C   4      19.531  31.751  22.8440  0.00  0.00     0.000 HD
ATOM     55   C  BGC C   4      16.900  35.943  25.4140  0.00  0.00     0.000 C
ATOM     56   O  BGC C   4      16.733  35.078  26.5430  0.00  0.00     0.000 O
ATOM     58  HD  BGC C   4      16.677  34.282  26.2070  0.00  0.00     0.000 HD
BRANCH 45 58
ATOM     58  O4  BGC C   5      21.423  36.067  25.7370  0.00  0.00     0.000 O
BRANCH 58 62
ATOM     59  C1  BGC C   5      24.047  36.820  24.3590  0.00  0.00     0.000 C
ATOM     60  C2  BGC C   5      24.260  37.012  25.7770  0.00  0.00     0.000 C
ATOM     61  C3  BGC C   5      23.109  37.730  26.4780  0.00  0.00     0.000 C
ATOM     62  C4  BGC C   5      21.821  37.460  25.7130  0.00  0.00     0.000 C
ATOM     63  C5  BGC C   5      22.126  37.641  24.2440  0.00  0.00     0.000 C
ATOM     64  O5  BGC C   5      23.492  37.674  23.8350  0.00  0.00     0.000 O
ATOM     65   O  BGC C   5      21.912  40.048  24.2610  0.00  0.00     0.000 O
ATOM     67  HD  BGC C   5      21.523  39.286  24.1240  0.00  0.00     0.000 HD
ATOM     67   O  BGC C   5      21.912  40.048  24.2610  0.00  0.00     0.000 O
ATOM     69  HD  BGC C   5      21.523  39.286  24.1240  0.00  0.00     0.000 HD
ENDBRANCH 58 62
ENDBRANCH 45 58
ENDBRANCH 44 48
ENDBRANCH 31 44
ENDBRANCH 30 34
ENDBRANCH 17 30
ENDBRANCH 16 20
ENDBRANCH 1 16
TORSDOF 8
ENDMDL
MODEL 79
REMARK VINA RESULT:      -0.2     64.302     67.105
ROOT
ATOM      1  C1  BGC C   1      36.750  42.077  53.5440  0.00  0.00     0.000 C
ATOM      2  C2  BGC C   1      35.681  43.048  53.0460  0.00  0.00     0.000 C
ATOM      3  C3  BGC C   1      36.195  43.813  51.8330  0.00  0.00     0.000 C
ATOM      4  C4  BGC C   1      37.561  44.431  52.0800  0.00  0.00     0.000 C
ATOM      5  C5  BGC C   1      38.495  43.409  52.7220  0.00  0.00     0.000 C
ATOM      6  O5  BGC C   1      37.931  42.734  53.8020  0.00  0.00     0.000 O
ATOM      7   O  BGC C   1      34.548  42.287  52.7000  0.00  0.00     0.000 O
ATOM      9  HD  BGC C   1      34.566  43.138  52.8600  0.00  0.00     0.000 HD
ATOM      9   O  BGC C   1      35.215  44.800  51.4810  0.00  0.00     0.000 O
ATOM     11  HD  BGC C   1      35.234  45.651  51.6420  0.00  0.00     0.000 HD
ATOM     11   O  BGC C   1      38.057  44.853  50.8140  0.00  0.00     0.000 O
ATOM     13  HD  BGC C   1      38.075  45.704  50.9740  0.00  0.00     0.000 HD
ATOM     13   O  BGC C   1      39.458  45.036  54.3230  0.00  0.00     0.000 O
ATOM     15  HD  BGC C   1      39.477  45.887  54.4830  0.00  0.00     0.000 HD
ATOM     15   C  BGC C   1      39.754  44.149  53.2080  0.00  0.00     0.000 C
ENDROOT
BRANCH 1 16
ATOM     16  O4  BGC C   2      36.318  41.516  54.7610  0.00  0.00     0.000 O
BRANCH 16 20
ATOM     17  C1  BGC C   2      36.709  37.988  56.7800  0.00  0.00     0.000 C
ATOM     18  C2  BGC C   2      37.859  38.971  56.9300  0.00  0.00     0.000 C
ATOM     19  C3  BGC C   2      37.451  40.357  56.4520  0.00  0.00     0.000 C
ATOM     20  C4  BGC C   2      36.870  40.261  55.0810  0.00  0.00     0.000 C
ATOM     21  C5  BGC C   2      35.780  39.196  55.0210  0.00  0.00     0.000 C
ATOM     22  O5  BGC C   2      36.265  37.961  55.4540  0.00  0.00     0.000 O
ATOM     23   O  BGC C   2      38.257  39.012  58.3090  0.00  0.00     0.000 O
ATOM     25  HD  BGC C   2      38.432  39.827  58.5430  0.00  0.00     0.000 HD
ATOM     25   O  BGC C   2      38.597  41.200  56.4320  0.00  0.00     0.000 O
ATOM     27  HD  BGC C   2      38.772  42.016  56.6660  0.00  0.00     0.000 HD
ATOM     27   C  BGC C   2      35.133  39.012  53.6320  0.00  0.00     0.000 C
ATOM     28   O  BGC C   2      36.125  38.758  52.6250  0.00  0.00     0.000 O
ATOM     30  HD  BGC C   2      36.300  39.573  52.8590  0.00  0.00     0.000 HD
BRANCH 17 30
ATOM     30  O4  BGC C   3      37.152  36.695  57.1320  0.00  0.00     0.000 O
BRANCH 30 34
ATOM     31  C1  BGC C   3      35.865  33.329  58.9640  0.00  0.00     0.000 C
ATOM     32  C2  BGC C   3      35.494  33.463  57.4680  0.00  0.00     0.000 C
ATOM     33  C3  BGC C   3      36.290  34.535  56.8090  0.00  0.00     0.000 C
ATOM     34  C4  BGC C   3      36.166  35.811  57.6440  0.00  0.00     0.000 C
ATOM     35  C5  BGC C   3      36.427  35.596  59.1570  0.00  0.00     0.000 C
ATOM     36  O5  BGC C   3      35.634  34.541  59.6400  0.00  0.00     0.000 O
ATOM     37   O  BGC C   3      35.602  32.317  56.6440  0.00  0.00     0.000 O
ATOM     39  HD  BGC C   3      35.707  33.175  56.7020  0.00  0.00     0.000 HD
ATOM     39   O  BGC C   3      35.816  34.749  55.4470  0.00  0.00     0.000 O
ATOM     41  HD  BGC C   3      35.921  35.607  55.5050  0.00  0.00     0.000 HD
ATOM     41   C  BGC C   3      36.133  36.821  60.0540  0.00  0.00     0.000 C
ATOM     42   O  BGC C   3      34.724  37.247  60.0910  0.00  0.00     0.000 O
ATOM     44  HD  BGC C   3      34.829  38.105  60.1490  0.00  0.00     0.000 HD
BRANCH 31 44
ATOM     44  O4  BGC C   4      35.122  32.328  59.5750  0.00  0.00     0.000 O
BRANCH 44 48
ATOM     45  C1  BGC C   4      35.231  29.276  62.3020  0.00  0.00     0.000 C
ATOM     46  C2  BGC C   4      35.304  30.670  63.0040  0.00  0.00     0.000 C
ATOM     47  C3  BGC C   4      34.939  31.623  61.8580  0.00  0.00     0.000 C
ATOM     48  C4  BGC C   4      35.689  31.500  60.5460  0.00  0.00     0.000 C
ATOM     49  C5  BGC C   4      35.478  30.055  60.0670  0.00  0.00     0.000 C
ATOM     50  O5  BGC C   4      35.885  29.146  61.0300  0.00  0.00     0.000 O
ATOM     51   O  BGC C   4      34.431  31.044  64.2150  0.00  0.00     0.000 O
ATOM     53  HD  BGC C   4      34.505  31.884  64.4120  0.00  0.00     0.000 HD
ATOM     53   O  BGC C   4      35.424  32.922  62.4410  0.00  0.00     0.000 O
ATOM     55  HD  BGC C   4      35.498  33.762  62.6380  0.00  0.00     0.000 HD
ATOM     55   C  BGC C   4      36.312  29.753  58.8490  0.00  0.00     0.000 C
ATOM     56   O  BGC C   4      37.720  29.975  58.9920  0.00  0.00     0.000 O
ATOM     58  HD  BGC C   4      37.794  30.815  59.1890  0.00  0.00     0.000 HD
BRANCH 45 58
ATOM     58  O4  BGC C   5      35.763  28.257  63.0960  0.00  0.00     0.000 O
BRANCH 58 62
ATOM     59  C1  BGC C   5      33.765  27.578  65.3090  0.00  0.00     0.000 C
ATOM     60  C2  BGC C   5      34.884  26.676  65.4770  0.00  0.00     0.000 C
ATOM     61  C3  BGC C   5      35.373  26.056  64.1710  0.00  0.00     0.000 C
ATOM     62  C4  BGC C   5      35.045  27.001  63.0240  0.00  0.00     0.000 C
ATOM     63  C5  BGC C   5      33.624  27.474  63.2240  0.00  0.00     0.000 C
ATOM     64  O5  BGC C   5      33.017  27.271  64.4990  0.00  0.00     0.000 O
ATOM     65   O  BGC C   5      32.592  25.521  62.2470  0.00  0.00     0.000 O
ATOM     67  HD  BGC C   5      32.882  26.327  62.1210  0.00  0.00     0.000 HD
ATOM     67   O  BGC C   5      32.592  25.521  62.2470  0.00  0.00     0.000 O
ATOM     69  HD  BGC C   5      32.882  26.327  62.1210  0.00  0.00     0.000 HD
ENDBRANCH 58 62
ENDBRANCH 45 58
ENDBRANCH 44 48
ENDBRANCH 31 44
ENDBRANCH 30 34
ENDBRANCH 17 30
ENDBRANCH 16 20
ENDBRANCH 1 16
TORSDOF 8
ENDMDL
MODEL 80
REMARK VINA RESULT:      -0.2     19.387     25.546
ROOT
ATOM      1  C1  BGC C   1      25.552  17.942  11.8550  0.00  0.00     0.000 C
ATOM      2  C2  BGC C   1      25.715  17.832  10.3400  0.00  0.00     0.000 C
ATOM      3  C3  BGC C   1      24.809  18.839   9.6430  0.00  0.00     0.000 C
ATOM      4  C4  BGC C   1      23.376  18.765  10.1430  0.00  0.00     0.000 C
ATOM      5  C5  BGC C   1      23.350  18.724  11.6680  0.00  0.00     0.000 C
ATOM      6  O5  BGC C   1      24.232  17.800  12.2200  0.00  0.00     0.000 O
ATOM      7   O  BGC C   1      27.065  18.099  10.0400  0.00  0.00     0.000 O
ATOM      9  HD  BGC C   1      26.495  17.695   9.5290  0.00  0.00     0.000 HD
ATOM      9   O  BGC C   1      24.896  18.612   8.2290  0.00  0.00     0.000 O
ATOM     11  HD  BGC C   1      24.326  18.208   7.7180  0.00  0.00     0.000 HD
ATOM     11   O  BGC C   1      22.708  19.922   9.6500  0.00  0.00     0.000 O
ATOM     13  HD  BGC C   1      22.138  19.518   9.1390  0.00  0.00     0.000 HD
ATOM     13   O  BGC C   1      21.577  16.997  11.7660  0.00  0.00     0.000 O
ATOM     15  HD  BGC C   1      21.008  16.592  11.2550  0.00  0.00     0.000 HD
ATOM     15   C  BGC C   1      21.921  18.367  12.1140  0.00  0.00     0.000 C
ENDROOT
BRANCH 1 16
ATOM     16  O4  BGC C   2      26.262  16.889  12.4630  0.00  0.00     0.000 O
BRANCH 16 20
ATOM     17  C1  BGC C   2      28.308  16.219  15.9330  0.00  0.00     0.000 C
ATOM     18  C2  BGC C   2      26.797  16.068  16.0120  0.00  0.00     0.000 C
ATOM     19  C3  BGC C   2      26.190  15.978  14.6200  0.00  0.00     0.000 C
ATOM     20  C4  BGC C   2      26.672  17.120  13.7890  0.00  0.00     0.000 C
ATOM     21  C5  BGC C   2      28.193  17.229  13.8390  0.00  0.00     0.000 C
ATOM     22  O5  BGC C   2      28.643  17.334  15.1560  0.00  0.00     0.000 O
ATOM     23   O  BGC C   2      26.489  14.890  16.7720  0.00  0.00     0.000 O
ATOM     25  HD  BGC C   2      25.825  14.468  16.4090  0.00  0.00     0.000 HD
ATOM     25   O  BGC C   2      24.772  16.024  14.7240  0.00  0.00     0.000 O
ATOM     27  HD  BGC C   2      24.108  15.602  14.3620  0.00  0.00     0.000 HD
ATOM     27   C  BGC C   2      28.784  18.398  13.0230  0.00  0.00     0.000 C
ATOM     28   O  BGC C   2      28.188  19.650  13.4000  0.00  0.00     0.000 O
ATOM     30  HD  BGC C   2      27.524  19.228  13.0370  0.00  0.00     0.000 HD
BRANCH 17 30
ATOM     30  O4  BGC C   3      28.826  16.405  17.2330  0.00  0.00     0.000 O
BRANCH 30 34
ATOM     31  C1  BGC C   3      32.030  15.437  19.5000  0.00  0.00     0.000 C
ATOM     32  C2  BGC C   3      32.203  16.675  18.5880  0.00  0.00     0.000 C
ATOM     33  C3  BGC C   3      30.890  17.151  18.0700  0.00  0.00     0.000 C
ATOM     34  C4  BGC C   3      30.157  15.960  17.4470  0.00  0.00     0.000 C
ATOM     35  C5  BGC C   3      30.122  14.703  18.3540  0.00  0.00     0.000 C
ATOM     36  O5  BGC C   3      31.419  14.386  18.7920  0.00  0.00     0.000 O
ATOM     37   O  BGC C   3      32.861  17.812  19.1160  0.00  0.00     0.000 O
ATOM     39  HD  BGC C   3      32.220  17.521  18.6120  0.00  0.00     0.000 HD
ATOM     39   O  BGC C   3      31.088  18.215  17.0940  0.00  0.00     0.000 O
ATOM     41  HD  BGC C   3      30.447  17.924  16.5900  0.00  0.00     0.000 HD
ATOM     41   C  BGC C   3      29.553  13.429  17.6880  0.00  0.00     0.000 C
ATOM     42   O  BGC C   3      30.337  12.910  16.5550  0.00  0.00     0.000 O
ATOM     44  HD  BGC C   3      29.696  12.619  16.0500  0.00  0.00     0.000 HD
BRANCH 31 44
ATOM     44  O4  BGC C   4      33.256  14.998  19.9820  0.00  0.00     0.000 O
BRANCH 44 48
ATOM     45  C1  BGC C   4      35.212  13.463  23.2330  0.00  0.00     0.000 C
ATOM     46  C2  BGC C   4      34.253  12.407  22.5960  0.00  0.00     0.000 C
ATOM     47  C3  BGC C   4      33.888  13.074  21.2630  0.00  0.00     0.000 C
ATOM     48  C4  BGC C   4      33.385  14.504  21.2820  0.00  0.00     0.000 C
ATOM     49  C5  BGC C   4      34.485  15.336  21.9590  0.00  0.00     0.000 C
ATOM     50  O5  BGC C   4      34.787  14.834  23.2140  0.00  0.00     0.000 O
ATOM     51   O  BGC C   4      34.682  10.961  22.2900  0.00  0.00     0.000 O
ATOM     53  HD  BGC C   4      34.078  10.540  21.8340  0.00  0.00     0.000 HD
ATOM     53   O  BGC C   4      32.678  12.260  20.8930  0.00  0.00     0.000 O
ATOM     55  HD  BGC C   4      32.073  11.839  20.4380  0.00  0.00     0.000 HD
ATOM     55   C  BGC C   4      34.037  16.756  22.1890  0.00  0.00     0.000 C
ATOM     56   O  BGC C   4      32.831  16.910  22.9470  0.00  0.00     0.000 O
ATOM     58  HD  BGC C   4      32.226  16.489  22.4910  0.00  0.00     0.000 HD
BRANCH 45 58
ATOM     58  O4  BGC C   5      35.490  13.181  24.5730  0.00  0.00     0.000 O
BRANCH 58 62
ATOM     59  C1  BGC C   5      37.473  10.857  24.7100  0.00  0.00     0.000 C
ATOM     60  C2  BGC C   5      37.222  11.262  26.0760  0.00  0.00     0.000 C
ATOM     61  C3  BGC C   5      37.243  12.774  26.2810  0.00  0.00     0.000 C
ATOM     62  C4  BGC C   5      36.855  13.454  24.9760  0.00  0.00     0.000 C
ATOM     63  C5  BGC C   5      37.619  12.767  23.8680  0.00  0.00     0.000 C
ATOM     64  O5  BGC C   5      38.228  11.508  24.1460  0.00  0.00     0.000 O
ATOM     65   O  BGC C   5      39.666  14.006  24.2000  0.00  0.00     0.000 O
ATOM     67  HD  BGC C   5      38.917  13.946  23.7710  0.00  0.00     0.000 HD
ATOM     67   O  BGC C   5      39.666  14.006  24.2000  0.00  0.00     0.000 O
ATOM     69  HD  BGC C   5      38.917  13.946  23.7710  0.00  0.00     0.000 HD
ENDBRANCH 58 62
ENDBRANCH 45 58
ENDBRANCH 44 48
ENDBRANCH 31 44
ENDBRANCH 30 34
ENDBRANCH 17 30
ENDBRANCH 16 20
ENDBRANCH 1 16
TORSDOF 8
ENDMDL
MODEL 81
REMARK VINA RESULT:      -0.2     71.985     77.096
ROOT
ATOM      1  C1  BGC C   1      39.093  37.727  63.0390  0.00  0.00     0.000 C
ATOM      2  C2  BGC C   1      37.731  37.232  62.5530  0.00  0.00     0.000 C
ATOM      3  C3  BGC C   1      37.289  36.029  63.3770  0.00  0.00     0.000 C
ATOM      4  C4  BGC C   1      38.368  34.963  63.4640  0.00  0.00     0.000 C
ATOM      5  C5  BGC C   1      39.713  35.600  63.8030  0.00  0.00     0.000 C
ATOM      6  O5  BGC C   1      40.021  36.712  63.0230  0.00  0.00     0.000 O
ATOM      7   O  BGC C   1      36.817  38.292  62.7060  0.00  0.00     0.000 O
ATOM      9  HD  BGC C   1      36.717  37.595  62.2010  0.00  0.00     0.000 HD
ATOM      9   O  BGC C   1      36.076  35.519  62.8060  0.00  0.00     0.000 O
ATOM     11  HD  BGC C   1      35.976  34.823  62.3010  0.00  0.00     0.000 HD
ATOM     11   O  BGC C   1      37.965  34.050  64.4780  0.00  0.00     0.000 O
ATOM     13  HD  BGC C   1      37.864  33.353  63.9730  0.00  0.00     0.000 HD
ATOM     13   O  BGC C   1      40.978  34.202  62.1950  0.00  0.00     0.000 O
ATOM     15  HD  BGC C   1      40.878  33.505  61.6910  0.00  0.00     0.000 HD
ATOM     15   C  BGC C   1      40.811  34.539  63.6000  0.00  0.00     0.000 C
ENDROOT
BRANCH 1 16
ATOM     16  O4  BGC C   2      39.553  38.720  62.1520  0.00  0.00     0.000 O
BRANCH 16 20
ATOM     17  C1  BGC C   2      41.824  42.110  62.3150  0.00  0.00     0.000 C
ATOM     18  C2  BGC C   2      42.591  40.800  62.2240  0.00  0.00     0.000 C
ATOM     19  C3  BGC C   2      41.669  39.663  61.8070  0.00  0.00     0.000 C
ATOM     20  C4  BGC C   2      40.471  39.639  62.6950  0.00  0.00     0.000 C
ATOM     21  C5  BGC C   2      39.822  41.017  62.7770  0.00  0.00     0.000 C
ATOM     22  O5  BGC C   2      40.744  41.979  63.1940  0.00  0.00     0.000 O
ATOM     23   O  BGC C   2      43.659  40.953  61.2780  0.00  0.00     0.000 O
ATOM     25  HD  BGC C   2      43.734  40.238  60.7950  0.00  0.00     0.000 HD
ATOM     25   O  BGC C   2      42.371  38.430  61.9110  0.00  0.00     0.000 O
ATOM     27  HD  BGC C   2      42.445  37.715  61.4280  0.00  0.00     0.000 HD
ATOM     27   C  BGC C   2      38.582  41.093  63.6930  0.00  0.00     0.000 C
ATOM     28   O  BGC C   2      38.879  40.610  65.0130  0.00  0.00     0.000 O
ATOM     30  HD  BGC C   2      38.953  39.895  64.5300  0.00  0.00     0.000 HD
BRANCH 17 30
ATOM     30  O4  BGC C   3      42.682  43.118  62.8040  0.00  0.00     0.000 O
BRANCH 30 34
ATOM     31  C1  BGC C   3      43.471  47.056  62.3500  0.00  0.00     0.000 C
ATOM     32  C2  BGC C   3      42.316  46.711  63.3200  0.00  0.00     0.000 C
ATOM     33  C3  BGC C   3      42.331  45.267  63.6840  0.00  0.00     0.000 C
ATOM     34  C4  BGC C   3      42.388  44.445  62.3940  0.00  0.00     0.000 C
ATOM     35  C5  BGC C   3      43.483  44.914  61.4020  0.00  0.00     0.000 C
ATOM     36  O5  BGC C   3      43.369  46.296  61.1720  0.00  0.00     0.000 O
ATOM     37   O  BGC C   3      42.222  47.431  64.5360  0.00  0.00     0.000 O
ATOM     39  HD  BGC C   3      42.132  46.663  64.1440  0.00  0.00     0.000 HD
ATOM     39   O  BGC C   3      41.149  44.933  64.4690  0.00  0.00     0.000 O
ATOM     41  HD  BGC C   3      41.060  44.165  64.0780  0.00  0.00     0.000 HD
ATOM     41   C  BGC C   3      43.451  44.227  60.0170  0.00  0.00     0.000 C
ATOM     42   O  BGC C   3      42.244  44.490  59.2150  0.00  0.00     0.000 O
ATOM     44  HD  BGC C   3      42.154  43.722  58.8240  0.00  0.00     0.000 HD
BRANCH 31 44
ATOM     44  O4  BGC C   4      43.454  48.404  62.0150  0.00  0.00     0.000 O
BRANCH 44 48
ATOM     45  C1  BGC C   4      45.778  51.695  61.2850  0.00  0.00     0.000 C
ATOM     46  C2  BGC C   4      45.890  50.651  60.1280  0.00  0.00     0.000 C
ATOM     47  C3  BGC C   4      44.738  49.691  60.4530  0.00  0.00     0.000 C
ATOM     48  C4  BGC C   4      44.642  49.122  61.8550  0.00  0.00     0.000 C
ATOM     49  C5  BGC C   4      44.554  50.329  62.8020  0.00  0.00     0.000 C
ATOM     50  O5  BGC C   4      45.629  51.184  62.6190  0.00  0.00     0.000 O
ATOM     51   O  BGC C   4      45.773  51.032  58.6420  0.00  0.00     0.000 O
ATOM     53  HD  BGC C   4      45.740  50.330  58.1360  0.00  0.00     0.000 HD
ATOM     53   O  BGC C   4      45.136  48.516  59.6020  0.00  0.00     0.000 O
ATOM     55  HD  BGC C   4      45.103  47.814  59.0960  0.00  0.00     0.000 HD
ATOM     55   C  BGC C   4      44.620  49.901  64.2450  0.00  0.00     0.000 C
ATOM     56   O  BGC C   4      45.770  49.129  64.6110  0.00  0.00     0.000 O
ATOM     58  HD  BGC C   4      45.737  48.427  64.1050  0.00  0.00     0.000 HD
BRANCH 45 58
ATOM     58  O4  BGC C   5      46.884  52.545  61.3380  0.00  0.00     0.000 O
BRANCH 58 62
ATOM     59  C1  BGC C   5      46.675  54.590  59.0730  0.00  0.00     0.000 C
ATOM     60  C2  BGC C   5      47.877  54.917  59.8090  0.00  0.00     0.000 C
ATOM     61  C3  BGC C   5      47.694  54.891  61.3240  0.00  0.00     0.000 C
ATOM     62  C4  BGC C   5      46.573  53.921  61.6690  0.00  0.00     0.000 C
ATOM     63  C5  BGC C   5      45.435  54.191  60.7120  0.00  0.00     0.000 C
ATOM     64  O5  BGC C   5      45.703  54.969  59.5460  0.00  0.00     0.000 O
ATOM     65   O  BGC C   5      44.538  56.065  61.9450  0.00  0.00     0.000 O
ATOM     67  HD  BGC C   5      44.508  55.212  61.7980  0.00  0.00     0.000 HD
ATOM     67   O  BGC C   5      44.538  56.065  61.9450  0.00  0.00     0.000 O
ATOM     69  HD  BGC C   5      44.508  55.212  61.7980  0.00  0.00     0.000 HD
ENDBRANCH 58 62
ENDBRANCH 45 58
ENDBRANCH 44 48
ENDBRANCH 31 44
ENDBRANCH 30 34
ENDBRANCH 17 30
ENDBRANCH 16 20
ENDBRANCH 1 16
TORSDOF 8
ENDMDL
MODEL 82
REMARK VINA RESULT:      -0.2     49.318     56.090
ROOT
ATOM      1  C1  BGC C   1      48.900  14.482  50.0220  0.00  0.00     0.000 C
ATOM      2  C2  BGC C   1      49.199  13.045  49.5990  0.00  0.00     0.000 C
ATOM      3  C3  BGC C   1      49.829  12.280  50.7560  0.00  0.00     0.000 C
ATOM      4  C4  BGC C   1      51.002  13.028  51.3690  0.00  0.00     0.000 C
ATOM      5  C5  BGC C   1      50.631  14.491  51.6010  0.00  0.00     0.000 C
ATOM      6  O5  BGC C   1      50.031  15.100  50.5030  0.00  0.00     0.000 O
ATOM      7   O  BGC C   1      47.977  12.451  49.2280  0.00  0.00     0.000 O
ATOM      9  HD  BGC C   1      48.770  12.172  49.0160  0.00  0.00     0.000 HD
ATOM      9   O  BGC C   1      50.211  10.984  50.2780  0.00  0.00     0.000 O
ATOM     11  HD  BGC C   1      51.004  10.705  50.0660  0.00  0.00     0.000 HD
ATOM     11   O  BGC C   1      51.310  12.377  52.5960  0.00  0.00     0.000 O
ATOM     13  HD  BGC C   1      52.102  12.099  52.3840  0.00  0.00     0.000 HD
ATOM     13   O  BGC C   1      52.814  15.351  50.8070  0.00  0.00     0.000 O
ATOM     15  HD  BGC C   1      53.606  15.073  50.5950  0.00  0.00     0.000 HD
ATOM     15   C  BGC C   1      51.918  15.261  51.9490  0.00  0.00     0.000 C
ENDROOT
BRANCH 1 16
ATOM     16  O4  BGC C   2      48.485  15.208  48.8880  0.00  0.00     0.000 O
BRANCH 16 20
ATOM     17  C1  BGC C   2      45.974  18.312  48.0310  0.00  0.00     0.000 C
ATOM     18  C2  BGC C   2      47.356  18.695  48.5350  0.00  0.00     0.000 C
ATOM     19  C3  BGC C   2      48.303  17.505  48.4700  0.00  0.00     0.000 C
ATOM     20  C4  BGC C   2      47.680  16.333  49.1500  0.00  0.00     0.000 C
ATOM     21  C5  BGC C   2      46.270  16.081  48.6270  0.00  0.00     0.000 C
ATOM     22  O5  BGC C   2      45.478  17.223  48.7570  0.00  0.00     0.000 O
ATOM     23   O  BGC C   2      47.856  19.779  47.7370  0.00  0.00     0.000 O
ATOM     25  HD  BGC C   2      48.698  19.663  47.5730  0.00  0.00     0.000 HD
ATOM     25   O  BGC C   2      49.524  17.845  49.1160  0.00  0.00     0.000 O
ATOM     27  HD  BGC C   2      50.367  17.729  48.9520  0.00  0.00     0.000 HD
ATOM     27   C  BGC C   2      45.537  14.896  49.2890  0.00  0.00     0.000 C
ATOM     28   O  BGC C   2      45.514  15.031  50.7190  0.00  0.00     0.000 O
ATOM     30  HD  BGC C   2      46.356  14.915  50.5550  0.00  0.00     0.000 HD
BRANCH 17 30
ATOM     30  O4  BGC C   3      45.096  19.404  48.2020  0.00  0.00     0.000 O
BRANCH 30 34
ATOM     31  C1  BGC C   3      41.982  21.240  46.3930  0.00  0.00     0.000 C
ATOM     32  C2  BGC C   3      41.622  20.020  47.2740  0.00  0.00     0.000 C
ATOM     33  C3  BGC C   3      42.760  19.637  48.1550  0.00  0.00     0.000 C
ATOM     34  C4  BGC C   3      44.013  19.488  47.2890  0.00  0.00     0.000 C
ATOM     35  C5  BGC C   3      44.258  20.684  46.3340  0.00  0.00     0.000 C
ATOM     36  O5  BGC C   3      43.098  20.953  45.5870  0.00  0.00     0.000 O
ATOM     37   O  BGC C   3      40.481  20.105  48.1070  0.00  0.00     0.000 O
ATOM     39  HD  BGC C   3      41.293  19.817  48.0270  0.00  0.00     0.000 HD
ATOM     39   O  BGC C   3      42.457  18.396  48.8590  0.00  0.00     0.000 O
ATOM     41  HD  BGC C   3      43.269  18.108  48.7790  0.00  0.00     0.000 HD
ATOM     41   C  BGC C   3      45.407  20.488  45.3180  0.00  0.00     0.000 C
ATOM     42   O  BGC C   3      45.199  19.409  44.3370  0.00  0.00     0.000 O
ATOM     44  HD  BGC C   3      46.011  19.121  44.2570  0.00  0.00     0.000 HD
BRANCH 31 44
ATOM     44  O4  BGC C   4      40.918  21.595  45.5740  0.00  0.00     0.000 O
BRANCH 44 48
ATOM     45  C1  BGC C   4      38.861  24.735  43.9420  0.00  0.00     0.000 C
ATOM     46  C2  BGC C   4      40.271  24.577  43.2880  0.00  0.00     0.000 C
ATOM     47  C3  BGC C   4      40.711  23.203  43.8090  0.00  0.00     0.000 C
ATOM     48  C4  BGC C   4      40.636  22.935  45.3000  0.00  0.00     0.000 C
ATOM     49  C5  BGC C   4      39.170  23.164  45.7020  0.00  0.00     0.000 C
ATOM     50  O5  BGC C   4      38.748  24.433  45.3410  0.00  0.00     0.000 O
ATOM     51   O  BGC C   4      40.495  24.590  41.7650  0.00  0.00     0.000 O
ATOM     53  HD  BGC C   4      41.309  24.375  41.5620  0.00  0.00     0.000 HD
ATOM     53   O  BGC C   4      42.185  23.280  43.5210  0.00  0.00     0.000 O
ATOM     55  HD  BGC C   4      42.999  23.065  43.3180  0.00  0.00     0.000 HD
ATOM     55   C  BGC C   4      38.994  23.089  47.1970  0.00  0.00     0.000 C
ATOM     56   O  BGC C   4      39.811  23.981  47.9630  0.00  0.00     0.000 O
ATOM     58  HD  BGC C   4      40.625  23.766  47.7600  0.00  0.00     0.000 HD
BRANCH 45 58
ATOM     58  O4  BGC C   5      38.357  26.030  43.8020  0.00  0.00     0.000 O
BRANCH 58 62
ATOM     59  C1  BGC C   5      37.395  26.418  40.9260  0.00  0.00     0.000 C
ATOM     60  C2  BGC C   5      37.106  27.652  41.6230  0.00  0.00     0.000 C
ATOM     61  C3  BGC C   5      36.484  27.446  43.0020  0.00  0.00     0.000 C
ATOM     62  C4  BGC C   5      36.933  26.099  43.5490  0.00  0.00     0.000 C
ATOM     63  C5  BGC C   5      36.796  25.092  42.4300  0.00  0.00     0.000 C
ATOM     64  O5  BGC C   5      36.635  25.578  41.0990  0.00  0.00     0.000 O
ATOM     65   O  BGC C   5      34.430  24.719  42.7450  0.00  0.00     0.000 O
ATOM     67  HD  BGC C   5      35.235  24.461  42.9290  0.00  0.00     0.000 HD
ATOM     67   O  BGC C   5      34.430  24.719  42.7450  0.00  0.00     0.000 O
ATOM     69  HD  BGC C   5      35.235  24.461  42.9290  0.00  0.00     0.000 HD
ENDBRANCH 58 62
ENDBRANCH 45 58
ENDBRANCH 44 48
ENDBRANCH 31 44
ENDBRANCH 30 34
ENDBRANCH 17 30
ENDBRANCH 16 20
ENDBRANCH 1 16
TORSDOF 8
ENDMDL
MODEL 83
REMARK VINA RESULT:      -0.2     52.659     59.512
ROOT
ATOM      1  C1  BGC C   1      44.485  34.340  31.3290  0.00  0.00     0.000 C
ATOM      2  C2  BGC C   1      43.192  34.342  30.5140  0.00  0.00     0.000 C
ATOM      3  C3  BGC C   1      42.893  32.936  30.0070  0.00  0.00     0.000 C
ATOM      4  C4  BGC C   1      44.091  32.308  29.3140  0.00  0.00     0.000 C
ATOM      5  C5  BGC C   1      45.350  32.507  30.1520  0.00  0.00     0.000 C
ATOM      6  O5  BGC C   1      45.526  33.814  30.6000  0.00  0.00     0.000 O
ATOM      7   O  BGC C   1      42.159  34.786  31.3610  0.00  0.00     0.000 O
ATOM      9  HD  BGC C   1      42.143  34.770  30.4950  0.00  0.00     0.000 HD
ATOM      9   O  BGC C   1      41.751  33.008  29.1430  0.00  0.00     0.000 O
ATOM     11  HD  BGC C   1      41.735  32.992  28.2770  0.00  0.00     0.000 HD
ATOM     11   O  BGC C   1      43.796  30.925  29.1550  0.00  0.00     0.000 O
ATOM     13  HD  BGC C   1      43.780  30.908  28.2890  0.00  0.00     0.000 HD
ATOM     13   O  BGC C   1      46.775  33.052  28.2000  0.00  0.00     0.000 O
ATOM     15  HD  BGC C   1      46.759  33.036  27.3340  0.00  0.00     0.000 HD
ATOM     15   C  BGC C   1      46.566  32.115  29.2930  0.00  0.00     0.000 C
ENDROOT
BRANCH 1 16
ATOM     16  O4  BGC C   2      44.827  35.672  31.6330  0.00  0.00     0.000 O
BRANCH 16 20
ATOM     17  C1  BGC C   2      46.681  37.712  34.6450  0.00  0.00     0.000 C
ATOM     18  C2  BGC C   2      47.597  37.060  33.6220  0.00  0.00     0.000 C
ATOM     19  C3  BGC C   2      46.817  36.655  32.3790  0.00  0.00     0.000 C
ATOM     20  C4  BGC C   2      45.629  35.846  32.7760  0.00  0.00     0.000 C
ATOM     21  C5  BGC C   2      44.821  36.554  33.8600  0.00  0.00     0.000 C
ATOM     22  O5  BGC C   2      45.622  36.855  34.9630  0.00  0.00     0.000 O
ATOM     23   O  BGC C   2      48.642  37.983  33.2810  0.00  0.00     0.000 O
ATOM     25  HD  BGC C   2      48.801  37.950  32.4300  0.00  0.00     0.000 HD
ATOM     25   O  BGC C   2      47.660  35.888  31.5280  0.00  0.00     0.000 O
ATOM     27  HD  BGC C   2      47.819  35.855  30.6770  0.00  0.00     0.000 HD
ATOM     27   C  BGC C   2      43.579  35.780  34.3490  0.00  0.00     0.000 C
ATOM     28   O  BGC C   2      43.928  34.456  34.7820  0.00  0.00     0.000 O
ATOM     30  HD  BGC C   2      44.087  34.423  33.9320  0.00  0.00     0.000 HD
BRANCH 17 30
ATOM     30  O4  BGC C   3      47.412  37.978  35.8230  0.00  0.00     0.000 O
BRANCH 30 34
ATOM     31  C1  BGC C   3      47.732  40.735  38.7610  0.00  0.00     0.000 C
ATOM     32  C2  BGC C   3      46.624  39.672  38.9560  0.00  0.00     0.000 C
ATOM     33  C3  BGC C   3      46.809  38.524  38.0260  0.00  0.00     0.000 C
ATOM     34  C4  BGC C   3      46.965  39.074  36.6060  0.00  0.00     0.000 C
ATOM     35  C5  BGC C   3      47.998  40.224  36.4900  0.00  0.00     0.000 C
ATOM     36  O5  BGC C   3      47.722  41.221  37.4420  0.00  0.00     0.000 O
ATOM     37   O  BGC C   3      46.443  39.118  40.2460  0.00  0.00     0.000 O
ATOM     39  HD  BGC C   3      46.446  38.970  39.3930  0.00  0.00     0.000 HD
ATOM     39   O  BGC C   3      45.674  37.614  38.1160  0.00  0.00     0.000 O
ATOM     41  HD  BGC C   3      45.677  37.466  37.2620  0.00  0.00     0.000 HD
ATOM     41   C  BGC C   3      48.049  40.924  35.1130  0.00  0.00     0.000 C
ATOM     42   O  BGC C   3      46.821  41.639  34.7270  0.00  0.00     0.000 O
ATOM     44  HD  BGC C   3      46.823  41.491  33.8740  0.00  0.00     0.000 HD
BRANCH 31 44
ATOM     44  O4  BGC C   4      47.556  41.803  39.6320  0.00  0.00     0.000 O
BRANCH 44 48
ATOM     45  C1  BGC C   4      49.475  44.504  42.0360  0.00  0.00     0.000 C
ATOM     46  C2  BGC C   4      49.712  44.819  40.5250  0.00  0.00     0.000 C
ATOM     47  C3  BGC C   4      48.681  43.909  39.8450  0.00  0.00     0.000 C
ATOM     48  C4  BGC C   4      48.651  42.440  40.2210  0.00  0.00     0.000 C
ATOM     49  C5  BGC C   4      48.420  42.392  41.7400  0.00  0.00     0.000 C
ATOM     50  O5  BGC C   4      49.386  43.121  42.4130  0.00  0.00     0.000 O
ATOM     51   O  BGC C   4      49.552  46.229  39.9280  0.00  0.00     0.000 O
ATOM     53  HD  BGC C   4      49.603  46.215  39.0640  0.00  0.00     0.000 HD
ATOM     53   O  BGC C   4      49.216  43.920  38.4390  0.00  0.00     0.000 O
ATOM     55  HD  BGC C   4      49.267  43.907  37.5750  0.00  0.00     0.000 HD
ATOM     55   C  BGC C   4      48.534  40.985  42.2680  0.00  0.00     0.000 C
ATOM     56   O  BGC C   4      49.767  40.314  41.9820  0.00  0.00     0.000 O
ATOM     58  HD  BGC C   4      49.818  40.301  41.1180  0.00  0.00     0.000 HD
BRANCH 45 58
ATOM     58  O4  BGC C   5      50.474  45.044  42.8500  0.00  0.00     0.000 O
BRANCH 58 62
ATOM     59  C1  BGC C   5      50.027  48.059  43.1030  0.00  0.00     0.000 C
ATOM     60  C2  BGC C   5      51.180  47.746  43.9180  0.00  0.00     0.000 C
ATOM     61  C3  BGC C   5      51.000  46.504  44.7860  0.00  0.00     0.000 C
ATOM     62  C4  BGC C   5      50.001  45.574  44.1130  0.00  0.00     0.000 C
ATOM     63  C5  BGC C   5      48.841  46.422  43.6470  0.00  0.00     0.000 C
ATOM     64  O5  BGC C   5      49.016  47.837  43.5950  0.00  0.00     0.000 O
ATOM     65   O  BGC C   5      47.727  46.484  45.7900  0.00  0.00     0.000 O
ATOM     67  HD  BGC C   5      47.798  46.093  45.0210  0.00  0.00     0.000 HD
ATOM     67   O  BGC C   5      47.727  46.484  45.7900  0.00  0.00     0.000 O
ATOM     69  HD  BGC C   5      47.798  46.093  45.0210  0.00  0.00     0.000 HD
ENDBRANCH 58 62
ENDBRANCH 45 58
ENDBRANCH 44 48
ENDBRANCH 31 44
ENDBRANCH 30 34
ENDBRANCH 17 30
ENDBRANCH 16 20
ENDBRANCH 1 16
TORSDOF 8
ENDMDL
MODEL 84
REMARK VINA RESULT:      -0.2     57.676     64.474
ROOT
ATOM      1  C1  BGC C   1      47.314  49.349  21.5980  0.00  0.00     0.000 C
ATOM      2  C2  BGC C   1      47.117  47.964  22.2150  0.00  0.00     0.000 C
ATOM      3  C3  BGC C   1      45.640  47.728  22.5060  0.00  0.00     0.000 C
ATOM      4  C4  BGC C   1      45.016  48.874  23.2840  0.00  0.00     0.000 C
ATOM      5  C5  BGC C   1      45.412  50.211  22.6630  0.00  0.00     0.000 C
ATOM      6  O5  BGC C   1      46.774  50.327  22.4010  0.00  0.00     0.000 O
ATOM      7   O  BGC C   1      47.591  47.017  21.2880  0.00  0.00     0.000 O
ATOM      9  HD  BGC C   1      47.462  46.888  22.1350  0.00  0.00     0.000 HD
ATOM      9   O  BGC C   1      45.518  46.479  23.2010  0.00  0.00     0.000 O
ATOM     11  HD  BGC C   1      45.389  46.350  24.0470  0.00  0.00     0.000 HD
ATOM     11   O  BGC C   1      43.606  48.685  23.2370  0.00  0.00     0.000 O
ATOM     13  HD  BGC C   1      43.478  48.556  24.0830  0.00  0.00     0.000 HD
ATOM     13   O  BGC C   1      45.803  51.310  24.8490  0.00  0.00     0.000 O
ATOM     15  HD  BGC C   1      45.674  51.181  25.6950  0.00  0.00     0.000 HD
ATOM     15   C  BGC C   1      45.001  51.332  23.6350  0.00  0.00     0.000 C
ENDROOT
BRANCH 1 16
ATOM     16  O4  BGC C   2      48.695  49.608  21.5040  0.00  0.00     0.000 O
BRANCH 16 20
ATOM     17  C1  BGC C   2      51.233  51.655  19.0470  0.00  0.00     0.000 C
ATOM     18  C2  BGC C   2      50.522  52.482  20.1060  0.00  0.00     0.000 C
ATOM     19  C3  BGC C   2      49.906  51.584  21.1700  0.00  0.00     0.000 C
ATOM     20  C4  BGC C   2      49.071  50.535  20.5150  0.00  0.00     0.000 C
ATOM     21  C5  BGC C   2      49.852  49.818  19.4180  0.00  0.00     0.000 C
ATOM     22  O5  BGC C   2      50.349  50.728  18.4830  0.00  0.00     0.000 O
ATOM     23   O  BGC C   2      51.467  53.386  20.6990  0.00  0.00     0.000 O
ATOM     25  HD  BGC C   2      51.336  53.434  21.5540  0.00  0.00     0.000 HD
ATOM     25   O  BGC C   2      49.099  52.371  22.0360  0.00  0.00     0.000 O
ATOM     27  HD  BGC C   2      48.969  52.419  22.8910  0.00  0.00     0.000 HD
ATOM     27   C  BGC C   2      49.060  48.726  18.6690  0.00  0.00     0.000 C
ATOM     28   O  BGC C   2      47.831  49.246  18.1380  0.00  0.00     0.000 O
ATOM     30  HD  BGC C   2      47.701  49.294  18.9930  0.00  0.00     0.000 HD
BRANCH 17 30
ATOM     30  O4  BGC C   3      51.700  52.509  18.0250  0.00  0.00     0.000 O
BRANCH 30 34
ATOM     31  C1  BGC C   3      54.827  52.967  15.5050  0.00  0.00     0.000 C
ATOM     32  C2  BGC C   3      53.720  51.995  15.0310  0.00  0.00     0.000 C
ATOM     33  C3  BGC C   3      52.479  52.157  15.8380  0.00  0.00     0.000 C
ATOM     34  C4  BGC C   3      52.852  52.073  17.3200  0.00  0.00     0.000 C
ATOM     35  C5  BGC C   3      54.049  52.976  17.7150  0.00  0.00     0.000 C
ATOM     36  O5  BGC C   3      55.137  52.740  16.8570  0.00  0.00     0.000 O
ATOM     37   O  BGC C   3      53.325  52.037  13.6730  0.00  0.00     0.000 O
ATOM     39  HD  BGC C   3      53.069  51.939  14.4940  0.00  0.00     0.000 HD
ATOM     39   O  BGC C   3      51.508  51.129  15.4810  0.00  0.00     0.000 O
ATOM     41  HD  BGC C   3      51.252  51.032  16.3030  0.00  0.00     0.000 HD
ATOM     41   C  BGC C   3      54.569  52.781  19.1580  0.00  0.00     0.000 C
ATOM     42   O  BGC C   3      55.138  51.453  19.4460  0.00  0.00     0.000 O
ATOM     44  HD  BGC C   3      54.882  51.356  20.2680  0.00  0.00     0.000 HD
BRANCH 31 44
ATOM     44  O4  BGC C   4      55.981  52.814  14.7490  0.00  0.00     0.000 O
BRANCH 44 48
ATOM     45  C1  BGC C   4      59.099  54.785  12.9740  0.00  0.00     0.000 C
ATOM     46  C2  BGC C   4      59.235  54.790  14.5300  0.00  0.00     0.000 C
ATOM     47  C3  BGC C   4      58.173  53.763  14.9450  0.00  0.00     0.000 C
ATOM     48  C4  BGC C   4      56.767  53.915  14.4000  0.00  0.00     0.000 C
ATOM     49  C5  BGC C   4      56.896  53.893  12.8690  0.00  0.00     0.000 C
ATOM     50  O5  BGC C   4      57.774  54.871  12.4300  0.00  0.00     0.000 O
ATOM     51   O  BGC C   4      60.542  54.427  15.2580  0.00  0.00     0.000 O
ATOM     53  HD  BGC C   4      60.422  54.363  16.1130  0.00  0.00     0.000 HD
ATOM     53   O  BGC C   4      58.044  54.104  16.4040  0.00  0.00     0.000 O
ATOM     55  HD  BGC C   4      57.924  54.041  17.2600  0.00  0.00     0.000 HD
ATOM     55   C  BGC C   4      55.580  54.202  12.2030  0.00  0.00     0.000 C
ATOM     56   O  BGC C   4      54.970  55.441  12.5810  0.00  0.00     0.000 O
ATOM     58  HD  BGC C   4      54.849  55.378  13.4360  0.00  0.00     0.000 HD
BRANCH 45 58
ATOM     58  O4  BGC C   5      59.810  55.830  12.3790  0.00  0.00     0.000 O
BRANCH 58 62
ATOM     59  C1  BGC C   5      62.792  55.153  12.4180  0.00  0.00     0.000 C
ATOM     60  C2  BGC C   5      62.671  56.428  11.7450  0.00  0.00     0.000 C
ATOM     61  C3  BGC C   5      61.540  56.476  10.7220  0.00  0.00     0.000 C
ATOM     62  C4  BGC C   5      60.461  55.484  11.1320  0.00  0.00     0.000 C
ATOM     63  C5  BGC C   5      61.157  54.201  11.5230  0.00  0.00     0.000 C
ATOM     64  O5  BGC C   5      62.562  54.240  11.7650  0.00  0.00     0.000 O
ATOM     65   O  BGC C   5      61.411  53.380   9.2650  0.00  0.00     0.000 O
ATOM     67  HD  BGC C   5      60.931  53.383   9.9860  0.00  0.00     0.000 HD
ATOM     67   O  BGC C   5      61.411  53.380   9.2650  0.00  0.00     0.000 O
ATOM     69  HD  BGC C   5      60.931  53.383   9.9860  0.00  0.00     0.000 HD
ENDBRANCH 58 62
ENDBRANCH 45 58
ENDBRANCH 44 48
ENDBRANCH 31 44
ENDBRANCH 30 34
ENDBRANCH 17 30
ENDBRANCH 16 20
ENDBRANCH 1 16
TORSDOF 8
ENDMDL
MODEL 85
REMARK VINA RESULT:      -0.2     76.146     80.343
ROOT
ATOM      1  C1  BGC C   1      32.229  49.901  62.1950  0.00  0.00     0.000 C
ATOM      2  C2  BGC C   1      32.417  49.109  60.9030  0.00  0.00     0.000 C
ATOM      3  C3  BGC C   1      33.818  48.512  60.8550  0.00  0.00     0.000 C
ATOM      4  C4  BGC C   1      34.894  49.547  61.1380  0.00  0.00     0.000 C
ATOM      5  C5  BGC C   1      34.518  50.379  62.3610  0.00  0.00     0.000 C
ATOM      6  O5  BGC C   1      33.210  50.856  62.3350  0.00  0.00     0.000 O
ATOM      7   O  BGC C   1      31.449  48.086  60.8890  0.00  0.00     0.000 O
ATOM      9  HD  BGC C   1      31.887  48.388  60.2060  0.00  0.00     0.000 HD
ATOM      9   O  BGC C   1      33.994  47.891  59.5740  0.00  0.00     0.000 O
ATOM     11  HD  BGC C   1      34.433  48.193  58.8910  0.00  0.00     0.000 HD
ATOM     11   O  BGC C   1      36.105  48.833  61.3580  0.00  0.00     0.000 O
ATOM     13  HD  BGC C   1      36.544  49.135  60.6750  0.00  0.00     0.000 HD
ATOM     13   O  BGC C   1      35.250  52.518  61.3490  0.00  0.00     0.000 O
ATOM     15  HD  BGC C   1      35.689  52.820  60.6650  0.00  0.00     0.000 HD
ATOM     15   C  BGC C   1      35.477  51.581  62.4370  0.00  0.00     0.000 C
ENDROOT
BRANCH 1 16
ATOM     16  O4  BGC C   2      30.998  50.582  62.1310  0.00  0.00     0.000 O
BRANCH 16 20
ATOM     17  C1  BGC C   2      28.075  51.807  64.7070  0.00  0.00     0.000 C
ATOM     18  C2  BGC C   2      29.289  52.717  64.5970  0.00  0.00     0.000 C
ATOM     19  C3  BGC C   2      30.118  52.364  63.3710  0.00  0.00     0.000 C
ATOM     20  C4  BGC C   2      30.418  50.903  63.3730  0.00  0.00     0.000 C
ATOM     21  C5  BGC C   2      29.145  50.083  63.5650  0.00  0.00     0.000 C
ATOM     22  O5  BGC C   2      28.476  50.467  64.7290  0.00  0.00     0.000 O
ATOM     23   O  BGC C   2      28.841  54.079  64.5260  0.00  0.00     0.000 O
ATOM     25  HD  BGC C   2      29.315  54.517  63.9490  0.00  0.00     0.000 HD
ATOM     25   O  BGC C   2      31.333  53.105  63.4000  0.00  0.00     0.000 O
ATOM     27  HD  BGC C   2      31.807  53.543  62.8220  0.00  0.00     0.000 HD
ATOM     27   C  BGC C   2      29.360  48.556  63.6010  0.00  0.00     0.000 C
ATOM     28   O  BGC C   2      30.335  48.190  64.5900  0.00  0.00     0.000 O
ATOM     30  HD  BGC C   2      30.809  48.629  64.0130  0.00  0.00     0.000 HD
BRANCH 17 30
ATOM     30  O4  BGC C   3      27.388  52.090  65.9070  0.00  0.00     0.000 O
BRANCH 30 34
ATOM     31  C1  BGC C   3      23.637  52.311  67.3950  0.00  0.00     0.000 C
ATOM     32  C2  BGC C   3      24.265  50.898  67.3680  0.00  0.00     0.000 C
ATOM     33  C3  BGC C   3      25.735  50.966  67.1390  0.00  0.00     0.000 C
ATOM     34  C4  BGC C   3      25.992  51.835  65.9050  0.00  0.00     0.000 C
ATOM     35  C5  BGC C   3      25.238  53.189  65.9260  0.00  0.00     0.000 C
ATOM     36  O5  BGC C   3      23.871  52.978  66.1800  0.00  0.00     0.000 O
ATOM     37   O  BGC C   3      24.072  50.055  68.4890  0.00  0.00     0.000 O
ATOM     39  HD  BGC C   3      24.620  50.319  67.8720  0.00  0.00     0.000 HD
ATOM     39   O  BGC C   3      26.280  49.626  66.9620  0.00  0.00     0.000 O
ATOM     41  HD  BGC C   3      26.828  49.889  66.3450  0.00  0.00     0.000 HD
ATOM     41   C  BGC C   3      25.327  54.010  64.6190  0.00  0.00     0.000 C
ATOM     42   O  BGC C   3      24.704  53.384  63.4410  0.00  0.00     0.000 O
ATOM     44  HD  BGC C   3      25.252  53.647  62.8250  0.00  0.00     0.000 HD
BRANCH 31 44
ATOM     44  O4  BGC C   4      22.266  52.243  67.6100  0.00  0.00     0.000 O
BRANCH 44 48
ATOM     45  C1  BGC C   4      19.090  53.998  69.5060  0.00  0.00     0.000 C
ATOM     46  C2  BGC C   4      19.606  54.880  68.3250  0.00  0.00     0.000 C
ATOM     47  C3  BGC C   4      20.548  53.915  67.5950  0.00  0.00     0.000 C
ATOM     48  C4  BGC C   4      21.612  53.193  68.3980  0.00  0.00     0.000 C
ATOM     49  C5  BGC C   4      20.866  52.414  69.4930  0.00  0.00     0.000 C
ATOM     50  O5  BGC C   4      20.070  53.258  70.2500  0.00  0.00     0.000 O
ATOM     51   O  BGC C   4      18.670  55.501  67.2720  0.00  0.00     0.000 O
ATOM     53  HD  BGC C   4      19.116  55.861  66.6230  0.00  0.00     0.000 HD
ATOM     53   O  BGC C   4      21.320  54.896  66.7560  0.00  0.00     0.000 O
ATOM     55  HD  BGC C   4      21.767  55.256  66.1070  0.00  0.00     0.000 HD
ATOM     55   C  BGC C   4      21.826  51.781  70.4680  0.00  0.00     0.000 C
ATOM     56   O  BGC C   4      22.743  52.678  71.1050  0.00  0.00     0.000 O
ATOM     58  HD  BGC C   4      23.190  53.037  70.4560  0.00  0.00     0.000 HD
BRANCH 45 58
ATOM     58  O4  BGC C   5      18.393  54.746  70.4570  0.00  0.00     0.000 O
BRANCH 58 62
ATOM     59  C1  BGC C   5      15.619  55.415  69.3560  0.00  0.00     0.000 C
ATOM     60  C2  BGC C   5      15.674  55.971  70.6900  0.00  0.00     0.000 C
ATOM     61  C3  BGC C   5      16.278  55.025  71.7250  0.00  0.00     0.000 C
ATOM     62  C4  BGC C   5      17.239  54.076  71.0230  0.00  0.00     0.000 C
ATOM     63  C5  BGC C   5      16.552  53.588  69.7690  0.00  0.00     0.000 C
ATOM     64  O5  BGC C   5      15.399  54.292  69.3110  0.00  0.00     0.000 O
ATOM     65   O  BGC C   5      15.258  51.870  70.8690  0.00  0.00     0.000 O
ATOM     67  HD  BGC C   5      15.983  52.068  70.4390  0.00  0.00     0.000 HD
ATOM     67   O  BGC C   5      15.258  51.870  70.8690  0.00  0.00     0.000 O
ATOM     69  HD  BGC C   5      15.983  52.068  70.4390  0.00  0.00     0.000 HD
ENDBRANCH 58 62
ENDBRANCH 45 58
ENDBRANCH 44 48
ENDBRANCH 31 44
ENDBRANCH 30 34
ENDBRANCH 17 30
ENDBRANCH 16 20
ENDBRANCH 1 16
TORSDOF 8
ENDMDL
MODEL 86
REMARK VINA RESULT:      -0.2     74.232     76.912
ROOT
ATOM      1  C1  BGC C   1      47.395  48.601  55.0690  0.00  0.00     0.000 C
ATOM      2  C2  BGC C   1      47.567  48.246  53.5930  0.00  0.00     0.000 C
ATOM      3  C3  BGC C   1      49.035  48.352  53.1980  0.00  0.00     0.000 C
ATOM      4  C4  BGC C   1      49.650  49.677  53.6180  0.00  0.00     0.000 C
ATOM      5  C5  BGC C   1      49.279  49.997  55.0630  0.00  0.00     0.000 C
ATOM      6  O5  BGC C   1      47.924  49.842  55.3430  0.00  0.00     0.000 O
ATOM      7   O  BGC C   1      47.108  46.927  53.4190  0.00  0.00     0.000 O
ATOM      9  HD  BGC C   1      47.215  47.520  52.7970  0.00  0.00     0.000 HD
ATOM      9   O  BGC C   1      49.132  48.140  51.7830  0.00  0.00     0.000 O
ATOM     11  HD  BGC C   1      49.239  48.733  51.1610  0.00  0.00     0.000 HD
ATOM     11   O  BGC C   1      51.059  49.542  53.4690  0.00  0.00     0.000 O
ATOM     13  HD  BGC C   1      51.167  50.135  52.8470  0.00  0.00     0.000 HD
ATOM     13   O  BGC C   1      48.846  52.393  54.6050  0.00  0.00     0.000 O
ATOM     15  HD  BGC C   1      48.954  52.986  53.9830  0.00  0.00     0.000 HD
ATOM     15   C  BGC C   1      49.676  51.457  55.3480  0.00  0.00     0.000 C
ENDROOT
BRANCH 1 16
ATOM     16  O4  BGC C   2      46.019  48.667  55.3600  0.00  0.00     0.000 O
BRANCH 16 20
ATOM     17  C1  BGC C   2      43.554  47.939  58.5330  0.00  0.00     0.000 C
ATOM     18  C2  BGC C   2      44.246  49.293  58.5260  0.00  0.00     0.000 C
ATOM     19  C3  BGC C   2      44.831  49.593  57.1530  0.00  0.00     0.000 C
ATOM     20  C4  BGC C   2      45.672  48.446  56.7060  0.00  0.00     0.000 C
ATOM     21  C5  BGC C   2      44.911  47.129  56.8240  0.00  0.00     0.000 C
ATOM     22  O5  BGC C   2      44.443  46.939  58.1250  0.00  0.00     0.000 O
ATOM     23   O  BGC C   2      43.296  50.302  58.8980  0.00  0.00     0.000 O
ATOM     25  HD  BGC C   2      43.406  51.009  58.4110  0.00  0.00     0.000 HD
ATOM     25   O  BGC C   2      45.624  50.772  57.2300  0.00  0.00     0.000 O
ATOM     27  HD  BGC C   2      45.735  51.479  56.7430  0.00  0.00     0.000 HD
ATOM     27   C  BGC C   2      45.711  45.880  56.4010  0.00  0.00     0.000 C
ATOM     28   O  BGC C   2      46.957  45.794  57.1130  0.00  0.00     0.000 O
ATOM     30  HD  BGC C   2      47.068  46.501  56.6250  0.00  0.00     0.000 HD
BRANCH 17 30
ATOM     30  O4  BGC C   3      43.117  47.646  59.8430  0.00  0.00     0.000 O
BRANCH 30 34
ATOM     31  C1  BGC C   3      40.052  45.891  61.8080  0.00  0.00     0.000 C
ATOM     32  C2  BGC C   3      41.161  44.936  61.3040  0.00  0.00     0.000 C
ATOM     33  C3  BGC C   3      42.385  45.690  60.9140  0.00  0.00     0.000 C
ATOM     34  C4  BGC C   3      41.977  46.807  59.9510  0.00  0.00     0.000 C
ATOM     35  C5  BGC C   3      40.780  47.656  60.4490  0.00  0.00     0.000 C
ATOM     36  O5  BGC C   3      39.709  46.819  60.8090  0.00  0.00     0.000 O
ATOM     37   O  BGC C   3      41.587  43.891  62.1580  0.00  0.00     0.000 O
ATOM     39  HD  BGC C   3      41.824  44.486  61.5740  0.00  0.00     0.000 HD
ATOM     39   O  BGC C   3      43.355  44.792  60.2980  0.00  0.00     0.000 O
ATOM     41  HD  BGC C   3      43.591  45.386  59.7150  0.00  0.00     0.000 HD
ATOM     41   C  BGC C   3      40.225  48.673  59.4250  0.00  0.00     0.000 C
ATOM     42   O  BGC C   3      39.639  48.083  58.2100  0.00  0.00     0.000 O
ATOM     44  HD  BGC C   3      39.875  48.677  57.6260  0.00  0.00     0.000 HD
BRANCH 31 44
ATOM     44  O4  BGC C   4      38.914  45.184  62.1720  0.00  0.00     0.000 O
BRANCH 44 48
ATOM     45  C1  BGC C   4      35.853  44.943  64.8800  0.00  0.00     0.000 C
ATOM     46  C2  BGC C   4      35.683  46.177  63.9370  0.00  0.00     0.000 C
ATOM     47  C3  BGC C   4      36.726  45.892  62.8490  0.00  0.00     0.000 C
ATOM     48  C4  BGC C   4      38.146  45.571  63.2730  0.00  0.00     0.000 C
ATOM     49  C5  BGC C   4      38.051  44.343  64.1920  0.00  0.00     0.000 C
ATOM     50  O5  BGC C   4      37.191  44.581  65.2520  0.00  0.00     0.000 O
ATOM     51   O  BGC C   4      34.357  46.516  63.2320  0.00  0.00     0.000 O
ATOM     53  HD  BGC C   4      34.457  47.156  62.6570  0.00  0.00     0.000 HD
ATOM     53   O  BGC C   4      36.826  47.258  62.2260  0.00  0.00     0.000 O
ATOM     55  HD  BGC C   4      36.926  47.898  61.6520  0.00  0.00     0.000 HD
ATOM     55   C  BGC C   4      39.383  44.019  64.8160  0.00  0.00     0.000 C
ATOM     56   O  BGC C   4      39.996  45.083  65.5550  0.00  0.00     0.000 O
ATOM     58  HD  BGC C   4      40.097  45.723  64.9800  0.00  0.00     0.000 HD
BRANCH 45 58
ATOM     58  O4  BGC C   5      35.165  45.102  66.0850  0.00  0.00     0.000 O
BRANCH 58 62
ATOM     59  C1  BGC C   5      32.177  44.682  65.5860  0.00  0.00     0.000 C
ATOM     60  C2  BGC C   5      32.324  44.929  67.0040  0.00  0.00     0.000 C
ATOM     61  C3  BGC C   5      33.478  44.162  67.6430  0.00  0.00     0.000 C
ATOM     62  C4  BGC C   5      34.539  43.895  66.5850  0.00  0.00     0.000 C
ATOM     63  C5  BGC C   5      33.823  43.413  65.3440  0.00  0.00     0.000 C
ATOM     64  O5  BGC C   5      32.413  43.611  65.2570  0.00  0.00     0.000 O
ATOM     65   O  BGC C   5      33.612  41.120  66.0770  0.00  0.00     0.000 O
ATOM     67  HD  BGC C   5      34.076  41.699  65.6300  0.00  0.00     0.000 HD
ATOM     67   O  BGC C   5      33.612  41.120  66.0770  0.00  0.00     0.000 O
ATOM     69  HD  BGC C   5      34.076  41.699  65.6300  0.00  0.00     0.000 HD
ENDBRANCH 58 62
ENDBRANCH 45 58
ENDBRANCH 44 48
ENDBRANCH 31 44
ENDBRANCH 30 34
ENDBRANCH 17 30
ENDBRANCH 16 20
ENDBRANCH 1 16
TORSDOF 8
ENDMDL
MODEL 87
REMARK VINA RESULT:      -0.2     69.161     72.638
ROOT
ATOM      1  C1  BGC C   1      53.668  14.503  61.4510  0.00  0.00     0.000 C
ATOM      2  C2  BGC C   1      53.410  12.998  61.5240  0.00  0.00     0.000 C
ATOM      3  C3  BGC C   1      51.925  12.734  61.7420  0.00  0.00     0.000 C
ATOM      4  C4  BGC C   1      51.361  13.541  62.9000  0.00  0.00     0.000 C
ATOM      5  C5  BGC C   1      51.816  14.994  62.8010  0.00  0.00     0.000 C
ATOM      6  O5  BGC C   1      53.181  15.141  62.5690  0.00  0.00     0.000 O
ATOM      7   O  BGC C   1      53.832  12.438  60.3030  0.00  0.00     0.000 O
ATOM      9  HD  BGC C   1      53.703  12.013  61.0470  0.00  0.00     0.000 HD
ATOM      9   O  BGC C   1      51.747  11.324  61.9340  0.00  0.00     0.000 O
ATOM     11  HD  BGC C   1      51.618  10.899  62.6780  0.00  0.00     0.000 HD
ATOM     11   O  BGC C   1      49.943  13.442  62.8190  0.00  0.00     0.000 O
ATOM     13  HD  BGC C   1      49.814  13.017  63.5620  0.00  0.00     0.000 HD
ATOM     13   O  BGC C   1      52.272  15.198  65.2280  0.00  0.00     0.000 O
ATOM     15  HD  BGC C   1      52.143  14.773  65.9710  0.00  0.00     0.000 HD
ATOM     15   C  BGC C   1      51.465  15.697  64.1250  0.00  0.00     0.000 C
ENDROOT
BRANCH 1 16
ATOM     16  O4  BGC C   2      55.059  14.720  61.4270  0.00  0.00     0.000 O
BRANCH 16 20
ATOM     17  C1  BGC C   2      57.677  17.417  59.8310  0.00  0.00     0.000 C
ATOM     18  C2  BGC C   2      57.013  17.827  61.1360  0.00  0.00     0.000 C
ATOM     19  C3  BGC C   2      56.362  16.628  61.8100  0.00  0.00     0.000 C
ATOM     20  C4  BGC C   2      55.474  15.929  60.8370  0.00  0.00     0.000 C
ATOM     21  C5  BGC C   2      56.213  15.631  59.5360  0.00  0.00     0.000 C
ATOM     22  O5  BGC C   2      56.747  16.799  58.9880  0.00  0.00     0.000 O
ATOM     23   O  BGC C   2      58.003  18.411  61.9960  0.00  0.00     0.000 O
ATOM     25  HD  BGC C   2      57.881  18.147  62.8120  0.00  0.00     0.000 HD
ATOM     25   O  BGC C   2      55.598  17.076  62.9240  0.00  0.00     0.000 O
ATOM     27  HD  BGC C   2      55.475  16.813  63.7390  0.00  0.00     0.000 HD
ATOM     27   C  BGC C   2      55.366  14.924  58.4580  0.00  0.00     0.000 C
ATOM     28   O  BGC C   2      54.159  15.654  58.1830  0.00  0.00     0.000 O
ATOM     30  HD  BGC C   2      54.037  15.390  58.9980  0.00  0.00     0.000 HD
BRANCH 17 30
ATOM     30  O4  BGC C   3      58.178  18.566  59.1820  0.00  0.00     0.000 O
BRANCH 30 34
ATOM     31  C1  BGC C   3      61.308  19.784  56.9330  0.00  0.00     0.000 C
ATOM     32  C2  BGC C   3      60.155  19.099  56.1620  0.00  0.00     0.000 C
ATOM     33  C3  BGC C   3      58.927  19.006  57.0000  0.00  0.00     0.000 C
ATOM     34  C4  BGC C   3      59.305  18.370  58.3400  0.00  0.00     0.000 C
ATOM     35  C5  BGC C   3      60.545  19.015  59.0110  0.00  0.00     0.000 C
ATOM     36  O5  BGC C   3      61.616  19.064  58.1010  0.00  0.00     0.000 O
ATOM     37   O  BGC C   3      59.754  19.652  54.9220  0.00  0.00     0.000 O
ATOM     39  HD  BGC C   3      59.498  19.271  55.6570  0.00  0.00     0.000 HD
ATOM     39   O  BGC C   3      57.907  18.222  56.3150  0.00  0.00     0.000 O
ATOM     41  HD  BGC C   3      57.652  17.841  57.0500  0.00  0.00     0.000 HD
ATOM     41   C  BGC C   3      61.064  18.283  60.2710  0.00  0.00     0.000 C
ATOM     42   O  BGC C   3      61.571  16.920  60.0400  0.00  0.00     0.000 O
ATOM     44  HD  BGC C   3      61.315  16.540  60.7750  0.00  0.00     0.000 HD
BRANCH 31 44
ATOM     44  O4  BGC C   4      62.450  19.870  56.1480  0.00  0.00     0.000 O
BRANCH 44 48
ATOM     45  C1  BGC C   4      65.648  22.222  55.1460  0.00  0.00     0.000 C
ATOM     46  C2  BGC C   4      65.792  21.652  56.5930  0.00  0.00     0.000 C
ATOM     47  C3  BGC C   4      64.685  20.590  56.6280  0.00  0.00     0.000 C
ATOM     48  C4  BGC C   4      63.284  20.988  56.2080  0.00  0.00     0.000 C
ATOM     49  C5  BGC C   4      63.404  21.523  54.7720  0.00  0.00     0.000 C
ATOM     50  O5  BGC C   4      64.324  22.556  54.7000  0.00  0.00     0.000 O
ATOM     51   O  BGC C   4      67.084  20.993  57.1090  0.00  0.00     0.000 O
ATOM     53  HD  BGC C   4      66.966  20.627  57.8850  0.00  0.00     0.000 HD
ATOM     53   O  BGC C   4      64.580  20.378  58.1140  0.00  0.00     0.000 O
ATOM     55  HD  BGC C   4      64.462  20.012  58.8900  0.00  0.00     0.000 HD
ATOM     55   C  BGC C   4      62.101  22.108  54.2930  0.00  0.00     0.000 C
ATOM     56   O  BGC C   4      61.551  23.147  55.1110  0.00  0.00     0.000 O
ATOM     58  HD  BGC C   4      61.433  22.781  55.8870  0.00  0.00     0.000 HD
BRANCH 45 58
ATOM     58  O4  BGC C   5      66.403  23.382  54.9590  0.00  0.00     0.000 O
BRANCH 58 62
ATOM     59  C1  BGC C   5      69.350  22.613  54.6810  0.00  0.00     0.000 C
ATOM     60  C2  BGC C   5      69.286  24.050  54.5230  0.00  0.00     0.000 C
ATOM     61  C3  BGC C   5      68.152  24.516  53.6140  0.00  0.00     0.000 C
ATOM     62  C4  BGC C   5      67.030  23.489  53.6570  0.00  0.00     0.000 C
ATOM     63  C5  BGC C   5      67.668  22.124  53.5370  0.00  0.00     0.000 C
ATOM     64  O5  BGC C   5      69.074  22.013  53.7460  0.00  0.00     0.000 O
ATOM     65   O  BGC C   5      67.871  22.176  51.1310  0.00  0.00     0.000 O
ATOM     67  HD  BGC C   5      67.395  21.935  51.8130  0.00  0.00     0.000 HD
ATOM     67   O  BGC C   5      67.871  22.176  51.1310  0.00  0.00     0.000 O
ATOM     69  HD  BGC C   5      67.395  21.935  51.8130  0.00  0.00     0.000 HD
ENDBRANCH 58 62
ENDBRANCH 45 58
ENDBRANCH 44 48
ENDBRANCH 31 44
ENDBRANCH 30 34
ENDBRANCH 17 30
ENDBRANCH 16 20
ENDBRANCH 1 16
TORSDOF 8
ENDMDL
MODEL 88
REMARK VINA RESULT:      -0.2     45.625     51.877
ROOT
ATOM      1  C1  BGC C   1      55.022  16.970  24.8650  0.00  0.00     0.000 C
ATOM      2  C2  BGC C   1      55.657  15.599  25.0940  0.00  0.00     0.000 C
ATOM      3  C3  BGC C   1      56.364  15.132  23.8270  0.00  0.00     0.000 C
ATOM      4  C4  BGC C   1      55.472  15.232  22.6010  0.00  0.00     0.000 C
ATOM      5  C5  BGC C   1      54.773  16.588  22.5660  0.00  0.00     0.000 C
ATOM      6  O5  BGC C   1      54.183  16.948  23.7740  0.00  0.00     0.000 O
ATOM      7   O  BGC C   1      56.580  15.731  26.1490  0.00  0.00     0.000 O
ATOM      9  HD  BGC C   1      56.233  14.993  25.8590  0.00  0.00     0.000 HD
ATOM      9   O  BGC C   1      56.829  13.794  24.0450  0.00  0.00     0.000 O
ATOM     11  HD  BGC C   1      56.483  13.055  23.7550  0.00  0.00     0.000 HD
ATOM     11   O  BGC C   1      56.313  15.060  21.4660  0.00  0.00     0.000 O
ATOM     13  HD  BGC C   1      55.966  14.321  21.1760  0.00  0.00     0.000 HD
ATOM     13   O  BGC C   1      52.595  15.643  21.8570  0.00  0.00     0.000 O
ATOM     15  HD  BGC C   1      52.249  14.904  21.5670  0.00  0.00     0.000 HD
ATOM     15   C  BGC C   1      53.681  16.536  21.4820  0.00  0.00     0.000 C
ENDROOT
BRANCH 1 16
ATOM     16  O4  BGC C   2      54.232  17.293  25.9850  0.00  0.00     0.000 O
BRANCH 16 20
ATOM     17  C1  BGC C   2      53.093  20.644  28.0220  0.00  0.00     0.000 C
ATOM     18  C2  BGC C   2      52.287  20.318  26.7750  0.00  0.00     0.000 C
ATOM     19  C3  BGC C   2      52.552  18.891  26.3180  0.00  0.00     0.000 C
ATOM     20  C4  BGC C   2      54.022  18.668  26.2020  0.00  0.00     0.000 C
ATOM     21  C5  BGC C   2      54.745  19.097  27.4760  0.00  0.00     0.000 C
ATOM     22  O5  BGC C   2      54.455  20.427  27.7890  0.00  0.00     0.000 O
ATOM     23   O  BGC C   2      50.893  20.502  27.0630  0.00  0.00     0.000 O
ATOM     25  HD  BGC C   2      50.428  19.870  26.6970  0.00  0.00     0.000 HD
ATOM     25   O  BGC C   2      51.931  18.681  25.0560  0.00  0.00     0.000 O
ATOM     27  HD  BGC C   2      51.466  18.049  24.6890  0.00  0.00     0.000 HD
ATOM     27   C  BGC C   2      56.277  18.922  27.4400  0.00  0.00     0.000 C
ATOM     28   O  BGC C   2      56.851  19.585  26.3020  0.00  0.00     0.000 O
ATOM     30  HD  BGC C   2      56.386  18.953  25.9360  0.00  0.00     0.000 HD
BRANCH 17 30
ATOM     30  O4  BGC C   3      52.905  22.003  28.3560  0.00  0.00     0.000 O
BRANCH 30 34
ATOM     31  C1  BGC C   3      52.545  24.419  31.5760  0.00  0.00     0.000 C
ATOM     32  C2  BGC C   3      53.993  24.090  31.1440  0.00  0.00     0.000 C
ATOM     33  C3  BGC C   3      54.026  23.499  29.7770  0.00  0.00     0.000 C
ATOM     34  C4  BGC C   3      53.034  22.334  29.7310  0.00  0.00     0.000 C
ATOM     35  C5  BGC C   3      51.632  22.684  30.2920  0.00  0.00     0.000 C
ATOM     36  O5  BGC C   3      51.752  23.258  31.5700  0.00  0.00     0.000 O
ATOM     37   O  BGC C   3      54.951  25.132  31.1540  0.00  0.00     0.000 O
ATOM     39  HD  BGC C   3      54.661  24.425  30.7470  0.00  0.00     0.000 HD
ATOM     39   O  BGC C   3      55.376  23.054  29.4530  0.00  0.00     0.000 O
ATOM     41  HD  BGC C   3      55.086  22.347  29.0460  0.00  0.00     0.000 HD
ATOM     41   C  BGC C   3      50.663  21.488  30.4300  0.00  0.00     0.000 C
ATOM     42   O  BGC C   3      51.078  20.452  31.3920  0.00  0.00     0.000 O
ATOM     44  HD  BGC C   3      50.788  19.745  30.9840  0.00  0.00     0.000 HD
BRANCH 31 44
ATOM     44  O4  BGC C   4      52.518  24.972  32.8500  0.00  0.00     0.000 O
BRANCH 44 48
ATOM     45  C1  BGC C   4      50.745  27.786  35.2360  0.00  0.00     0.000 C
ATOM     46  C2  BGC C   4      49.769  26.607  34.9260  0.00  0.00     0.000 C
ATOM     47  C3  BGC C   4      50.713  25.566  34.3110  0.00  0.00     0.000 C
ATOM     48  C4  BGC C   4      51.622  25.993  33.1750  0.00  0.00     0.000 C
ATOM     49  C5  BGC C   4      52.465  27.159  33.7160  0.00  0.00     0.000 C
ATOM     50  O5  BGC C   4      51.657  28.175  34.1970  0.00  0.00     0.000 O
ATOM     51   O  BGC C   4      48.940  25.898  36.0120  0.00  0.00     0.000 O
ATOM     53  HD  BGC C   4      48.541  25.196  35.6990  0.00  0.00     0.000 HD
ATOM     53   O  BGC C   4      49.706  24.660  33.6590  0.00  0.00     0.000 O
ATOM     55  HD  BGC C   4      49.307  23.957  33.3460  0.00  0.00     0.000 HD
ATOM     55   C  BGC C   4      53.298  27.785  32.6280  0.00  0.00     0.000 C
ATOM     56   O  BGC C   4      52.574  28.251  31.4840  0.00  0.00     0.000 O
ATOM     58  HD  BGC C   4      52.176  27.549  31.1710  0.00  0.00     0.000 HD
BRANCH 45 58
ATOM     58  O4  BGC C   5      50.065  28.955  35.5870  0.00  0.00     0.000 O
BRANCH 58 62
ATOM     59  C1  BGC C   5      49.020  28.677  38.4470  0.00  0.00     0.000 C
ATOM     60  C2  BGC C   5      48.645  30.001  38.0020  0.00  0.00     0.000 C
ATOM     61  C3  BGC C   5      49.764  30.745  37.2780  0.00  0.00     0.000 C
ATOM     62  C4  BGC C   5      50.697  29.728  36.6370  0.00  0.00     0.000 C
ATOM     63  C5  BGC C   5      50.960  28.650  37.6620  0.00  0.00     0.000 C
ATOM     64  O5  BGC C   5      50.104  28.577  38.8010  0.00  0.00     0.000 O
ATOM     65   O  BGC C   5      52.682  29.868  38.8400  0.00  0.00     0.000 O
ATOM     67  HD  BGC C   5      52.496  29.288  38.2240  0.00  0.00     0.000 HD
ATOM     67   O  BGC C   5      52.682  29.868  38.8400  0.00  0.00     0.000 O
ATOM     69  HD  BGC C   5      52.496  29.288  38.2240  0.00  0.00     0.000 HD
ENDBRANCH 58 62
ENDBRANCH 45 58
ENDBRANCH 44 48
ENDBRANCH 31 44
ENDBRANCH 30 34
ENDBRANCH 17 30
ENDBRANCH 16 20
ENDBRANCH 1 16
TORSDOF 8
ENDMDL
MODEL 89
REMARK VINA RESULT:      -0.2     29.712     32.103
ROOT
ATOM      1  C1  BGC C   1      20.777  18.170  31.1600  0.00  0.00     0.000 C
ATOM      2  C2  BGC C   1      20.314  16.720  31.2950  0.00  0.00     0.000 C
ATOM      3  C3  BGC C   1      18.856  16.676  31.7390  0.00  0.00     0.000 C
ATOM      4  C4  BGC C   1      18.599  17.551  32.9550  0.00  0.00     0.000 C
ATOM      5  C5  BGC C   1      19.243  18.922  32.7650  0.00  0.00     0.000 C
ATOM      6  O5  BGC C   1      20.563  18.866  32.3270  0.00  0.00     0.000 O
ATOM      7   O  BGC C   1      20.459  16.110  30.0350  0.00  0.00     0.000 O
ATOM      9  HD  BGC C   1      20.383  15.704  30.7960  0.00  0.00     0.000 HD
ATOM      9   O  BGC C   1      18.505  15.307  31.9790  0.00  0.00     0.000 O
ATOM     11  HD  BGC C   1      18.429  14.901  32.7410  0.00  0.00     0.000 HD
ATOM     11   O  BGC C   1      17.187  17.663  33.0900  0.00  0.00     0.000 O
ATOM     13  HD  BGC C   1      17.111  17.258  33.8510  0.00  0.00     0.000 HD
ATOM     13   O  BGC C   1      20.086  19.042  35.0910  0.00  0.00     0.000 O
ATOM     15  HD  BGC C   1      20.010  18.636  35.8530  0.00  0.00     0.000 HD
ATOM     15   C  BGC C   1      19.204  19.661  34.1150  0.00  0.00     0.000 C
ENDROOT
BRANCH 1 16
ATOM     16  O4  BGC C   2      22.165  18.179  30.9220  0.00  0.00     0.000 O
BRANCH 16 20
ATOM     17  C1  BGC C   2      24.878  20.469  28.9060  0.00  0.00     0.000 C
ATOM     18  C2  BGC C   2      24.487  20.965  30.2880  0.00  0.00     0.000 C
ATOM     19  C3  BGC C   2      23.777  19.872  31.0730  0.00  0.00     0.000 C
ATOM     20  C4  BGC C   2      22.658  19.317  30.2570  0.00  0.00     0.000 C
ATOM     21  C5  BGC C   2      23.140  18.921  28.8640  0.00  0.00     0.000 C
ATOM     22  O5  BGC C   2      23.751  20.000  28.2230  0.00  0.00     0.000 O
ATOM     23   O  BGC C   2      25.671  21.391  30.9800  0.00  0.00     0.000 O
ATOM     25  HD  BGC C   2      25.636  21.143  31.8090  0.00  0.00     0.000 HD
ATOM     25   O  BGC C   2      23.264  20.421  32.2810  0.00  0.00     0.000 O
ATOM     27  HD  BGC C   2      23.229  20.174  33.1110  0.00  0.00     0.000 HD
ATOM     27   C  BGC C   2      22.045  18.353  27.9390  0.00  0.00     0.000 C
ATOM     28   O  BGC C   2      20.931  19.255  27.8360  0.00  0.00     0.000 O
ATOM     30  HD  BGC C   2      20.896  19.007  28.6650  0.00  0.00     0.000 HD
BRANCH 17 30
ATOM     30  O4  BGC C   3      25.439  21.535  28.1690  0.00  0.00     0.000 O
BRANCH 30 34
ATOM     31  C1  BGC C   3      28.337  22.289  25.4550  0.00  0.00     0.000 C
ATOM     32  C2  BGC C   3      26.992  21.788  24.8780  0.00  0.00     0.000 C
ATOM     33  C3  BGC C   3      25.905  21.872  25.8930  0.00  0.00     0.000 C
ATOM     34  C4  BGC C   3      26.384  21.180  27.1710  0.00  0.00     0.000 C
ATOM     35  C5  BGC C   3      27.792  21.629  27.6360  0.00  0.00     0.000 C
ATOM     36  O5  BGC C   3      28.708  21.525  26.5750  0.00  0.00     0.000 O
ATOM     37   O  BGC C   3      26.493  22.401  23.7040  0.00  0.00     0.000 O
ATOM     39  HD  BGC C   3      26.299  22.058  24.4750  0.00  0.00     0.000 HD
ATOM     39   O  BGC C   3      24.689  21.252  25.3820  0.00  0.00     0.000 O
ATOM     41  HD  BGC C   3      24.494  20.909  26.1530  0.00  0.00     0.000 HD
ATOM     41   C  BGC C   3      28.383  20.822  28.8150  0.00  0.00     0.000 C
ATOM     42   O  BGC C   3      28.643  19.400  28.5340  0.00  0.00     0.000 O
ATOM     44  HD  BGC C   3      28.449  19.057  29.3050  0.00  0.00     0.000 HD
BRANCH 31 44
ATOM     44  O4  BGC C   4      29.347  22.210  24.5050  0.00  0.00     0.000 O
BRANCH 44 48
ATOM     45  C1  BGC C   4      32.666  24.070  22.9940  0.00  0.00     0.000 C
ATOM     46  C2  BGC C   4      32.943  23.476  24.4120  0.00  0.00     0.000 C
ATOM     47  C3  BGC C   4      31.710  22.589  24.6310  0.00  0.00     0.000 C
ATOM     48  C4  BGC C   4      30.336  23.193  24.4200  0.00  0.00     0.000 C
ATOM     49  C5  BGC C   4      30.314  23.712  22.9740  0.00  0.00     0.000 C
ATOM     50  O5  BGC C   4      31.354  24.598  22.7470  0.00  0.00     0.000 O
ATOM     51   O  BGC C   4      34.187  22.630  24.7380  0.00  0.00     0.000 O
ATOM     53  HD  BGC C   4      34.135  22.280  25.5290  0.00  0.00     0.000 HD
ATOM     53   O  BGC C   4      31.801  22.387  26.1190  0.00  0.00     0.000 O
ATOM     55  HD  BGC C   4      31.749  22.037  26.9090  0.00  0.00     0.000 HD
ATOM     55   C  BGC C   4      29.054  24.487  22.6880  0.00  0.00     0.000 C
ATOM     56   O  BGC C   4      28.793  25.591  23.5620  0.00  0.00     0.000 O
ATOM     58  HD  BGC C   4      28.741  25.241  24.3520  0.00  0.00     0.000 HD
BRANCH 45 58
ATOM     58  O4  BGC C   5      33.547  25.106  22.6760  0.00  0.00     0.000 O
BRANCH 58 62
ATOM     59  C1  BGC C   5      36.273  23.912  21.9690  0.00  0.00     0.000 C
ATOM     60  C2  BGC C   5      36.397  25.343  21.7990  0.00  0.00     0.000 C
ATOM     61  C3  BGC C   5      35.219  25.978  21.0640  0.00  0.00     0.000 C
ATOM     62  C4  BGC C   5      33.979  25.127  21.2930  0.00  0.00     0.000 C
ATOM     63  C5  BGC C   5      34.383  23.683  21.1010  0.00  0.00     0.000 C
ATOM     64  O5  BGC C   5      35.773  23.365  21.0960  0.00  0.00     0.000 O
ATOM     65   O  BGC C   5      34.224  23.720  18.6900  0.00  0.00     0.000 O
ATOM     67  HD  BGC C   5      33.827  23.548  19.4410  0.00  0.00     0.000 HD
ATOM     67   O  BGC C   5      34.224  23.720  18.6900  0.00  0.00     0.000 O
ATOM     69  HD  BGC C   5      33.827  23.548  19.4410  0.00  0.00     0.000 HD
ENDBRANCH 58 62
ENDBRANCH 45 58
ENDBRANCH 44 48
ENDBRANCH 31 44
ENDBRANCH 30 34
ENDBRANCH 17 30
ENDBRANCH 16 20
ENDBRANCH 1 16
TORSDOF 8
ENDMDL
MODEL 90
REMARK VINA RESULT:      -0.2     19.311     25.343
ROOT
ATOM      1  C1  BGC C   1      25.463  15.276  12.2860  0.00  0.00     0.000 C
ATOM      2  C2  BGC C   1      26.201  14.937  10.9920  0.00  0.00     0.000 C
ATOM      3  C3  BGC C   1      25.541  15.645   9.8140  0.00  0.00     0.000 C
ATOM      4  C4  BGC C   1      24.039  15.421   9.7770  0.00  0.00     0.000 C
ATOM      5  C5  BGC C   1      23.438  15.638  11.1630  0.00  0.00     0.000 C
ATOM      6  O5  BGC C   1      24.123  14.981  12.1810  0.00  0.00     0.000 O
ATOM      7   O  BGC C   1      27.532  15.369  11.1390  0.00  0.00     0.000 O
ATOM      9  HD  BGC C   1      27.239  14.794  10.5610  0.00  0.00     0.000 HD
ATOM      9   O  BGC C   1      26.181  15.197   8.6110  0.00  0.00     0.000 O
ATOM     11  HD  BGC C   1      25.888  14.622   8.0330  0.00  0.00     0.000 HD
ATOM     11   O  BGC C   1      23.507  16.349   8.8370  0.00  0.00     0.000 O
ATOM     13  HD  BGC C   1      23.214  15.774   8.2590  0.00  0.00     0.000 HD
ATOM     13   O  BGC C   1      21.925  13.682  11.0050  0.00  0.00     0.000 O
ATOM     15  HD  BGC C   1      21.632  13.107  10.4270  0.00  0.00     0.000 HD
ATOM     15   C  BGC C   1      21.985  15.129  11.1400  0.00  0.00     0.000 C
ENDROOT
BRANCH 1 16
ATOM     16  O4  BGC C   2      25.980  14.475  13.3220  0.00  0.00     0.000 O
BRANCH 16 20
ATOM     17  C1  BGC C   2      26.601  14.759  17.3480  0.00  0.00     0.000 C
ATOM     18  C2  BGC C   2      25.194  14.375  16.9180  0.00  0.00     0.000 C
ATOM     19  C3  BGC C   2      25.174  13.948  15.4570  0.00  0.00     0.000 C
ATOM     20  C4  BGC C   2      25.831  14.995  14.6220  0.00  0.00     0.000 C
ATOM     21  C5  BGC C   2      27.202  15.362  15.1820  0.00  0.00     0.000 C
ATOM     22  O5  BGC C   2      27.105  15.764  16.5150  0.00  0.00     0.000 O
ATOM     23   O  BGC C   2      24.728  13.309  17.7590  0.00  0.00     0.000 O
ATOM     25  HD  BGC C   2      24.293  12.727  17.2870  0.00  0.00     0.000 HD
ATOM     25   O  BGC C   2      23.825  13.775  15.0400  0.00  0.00     0.000 O
ATOM     27  HD  BGC C   2      23.391  13.193  14.5680  0.00  0.00     0.000 HD
ATOM     27   C  BGC C   2      27.951  16.455  14.3920  0.00  0.00     0.000 C
ATOM     28   O  BGC C   2      27.146  17.637  14.2460  0.00  0.00     0.000 O
ATOM     30  HD  BGC C   2      26.712  17.054  13.7750  0.00  0.00     0.000 HD
BRANCH 17 30
ATOM     30  O4  BGC C   3      26.566  15.248  18.6720  0.00  0.00     0.000 O
BRANCH 30 34
ATOM     31  C1  BGC C   3      28.737  15.226  22.0820  0.00  0.00     0.000 C
ATOM     32  C2  BGC C   3      29.132  16.302  21.0420  0.00  0.00     0.000 C
ATOM     33  C3  BGC C   3      28.078  16.457  20.0010  0.00  0.00     0.000 C
ATOM     34  C4  BGC C   3      27.749  15.073  19.4370  0.00  0.00     0.000 C
ATOM     35  C5  BGC C   3      27.484  14.001  20.5260  0.00  0.00     0.000 C
ATOM     36  O5  BGC C   3      28.539  13.983  21.4540  0.00  0.00     0.000 O
ATOM     37   O  BGC C   3      29.434  17.605  21.5050  0.00  0.00     0.000 O
ATOM     39  HD  BGC C   3      29.063  17.130  20.8830  0.00  0.00     0.000 HD
ATOM     39   O  BGC C   3      28.537  17.358  18.9500  0.00  0.00     0.000 O
ATOM     41  HD  BGC C   3      28.166  16.882  18.3280  0.00  0.00     0.000 HD
ATOM     41   C  BGC C   3      27.329  12.556  19.9990  0.00  0.00     0.000 C
ATOM     42   O  BGC C   3      28.529  11.988  19.3620  0.00  0.00     0.000 O
ATOM     44  HD  BGC C   3      28.158  11.513  18.7410  0.00  0.00     0.000 HD
BRANCH 31 44
ATOM     44  O4  BGC C   4      29.721  15.086  23.0520  0.00  0.00     0.000 O
BRANCH 44 48
ATOM     45  C1  BGC C   4      30.419  14.474  27.0390  0.00  0.00     0.000 C
ATOM     46  C2  BGC C   4      29.874  13.181  26.3520  0.00  0.00     0.000 C
ATOM     47  C3  BGC C   4      29.986  13.540  24.8640  0.00  0.00     0.000 C
ATOM     48  C4  BGC C   4      29.388  14.849  24.3880  0.00  0.00     0.000 C
ATOM     49  C5  BGC C   4      30.067  15.955  25.2100  0.00  0.00     0.000 C
ATOM     50  O5  BGC C   4      29.912  15.732  26.5680  0.00  0.00     0.000 O
ATOM     51   O  BGC C   4      30.517  11.796  26.5450  0.00  0.00     0.000 O
ATOM     53  HD  BGC C   4      30.172  11.209  26.0090  0.00  0.00     0.000 HD
ATOM     53   O  BGC C   4      29.087  12.486  24.2780  0.00  0.00     0.000 O
ATOM     55  HD  BGC C   4      28.743  11.899  23.7430  0.00  0.00     0.000 HD
ATOM     55   C  BGC C   4      29.439  17.299  24.9470  0.00  0.00     0.000 C
ATOM     56   O  BGC C   4      28.027  17.379  25.1730  0.00  0.00     0.000 O
ATOM     58  HD  BGC C   4      27.683  16.792  24.6370  0.00  0.00     0.000 HD
BRANCH 45 58
ATOM     58  O4  BGC C   5      30.189  14.476  28.4170  0.00  0.00     0.000 O
BRANCH 58 62
ATOM     59  C1  BGC C   5      32.171  12.571  29.7570  0.00  0.00     0.000 C
ATOM     60  C2  BGC C   5      31.383  13.156  30.8200  0.00  0.00     0.000 C
ATOM     61  C3  BGC C   5      31.188  14.663  30.6800  0.00  0.00     0.000 C
ATOM     62  C4  BGC C   5      31.267  15.036  29.2070  0.00  0.00     0.000 C
ATOM     63  C5  BGC C   5      32.455  14.307  28.6230  0.00  0.00     0.000 C
ATOM     64  O5  BGC C   5      33.022  13.232  29.3690  0.00  0.00     0.000 O
ATOM     65   O  BGC C   5      34.100  15.906  29.3780  0.00  0.00     0.000 O
ATOM     67  HD  BGC C   5      33.579  15.650  28.7350  0.00  0.00     0.000 HD
ATOM     67   O  BGC C   5      34.100  15.906  29.3780  0.00  0.00     0.000 O
ATOM     69  HD  BGC C   5      33.579  15.650  28.7350  0.00  0.00     0.000 HD
ENDBRANCH 58 62
ENDBRANCH 45 58
ENDBRANCH 44 48
ENDBRANCH 31 44
ENDBRANCH 30 34
ENDBRANCH 17 30
ENDBRANCH 16 20
ENDBRANCH 1 16
TORSDOF 8
ENDMDL
MODEL 91
REMARK VINA RESULT:      -0.2     54.236     61.806
ROOT
ATOM      1  C1  BGC C   1      55.139  37.653  23.8790  0.00  0.00     0.000 C
ATOM      2  C2  BGC C   1      55.967  37.534  22.6000  0.00  0.00     0.000 C
ATOM      3  C3  BGC C   1      55.298  38.310  21.4710  0.00  0.00     0.000 C
ATOM      4  C4  BGC C   1      53.828  37.955  21.3220  0.00  0.00     0.000 C
ATOM      5  C5  BGC C   1      53.144  37.956  22.6860  0.00  0.00     0.000 C
ATOM      6  O5  BGC C   1      53.840  37.251  23.6640  0.00  0.00     0.000 O
ATOM      7   O  BGC C   1      57.242  38.066  22.8700  0.00  0.00     0.000 O
ATOM      9  HD  BGC C   1      57.034  37.537  22.2170  0.00  0.00     0.000 HD
ATOM      9   O  BGC C   1      56.034  38.063  20.2650  0.00  0.00     0.000 O
ATOM     11  HD  BGC C   1      55.827  37.535  19.6120  0.00  0.00     0.000 HD
ATOM     11   O  BGC C   1      53.254  38.933  20.4610  0.00  0.00     0.000 O
ATOM     13  HD  BGC C   1      53.046  38.404  19.8070  0.00  0.00     0.000 HD
ATOM     13   O  BGC C   1      51.838  35.901  22.2260  0.00  0.00     0.000 O
ATOM     15  HD  BGC C   1      51.630  35.372  21.5730  0.00  0.00     0.000 HD
ATOM     15   C  BGC C   1      51.750  37.322  22.5230  0.00  0.00     0.000 C
ENDROOT
BRANCH 1 16
ATOM     16  O4  BGC C   2      55.682  36.789  24.8490  0.00  0.00     0.000 O
BRANCH 16 20
ATOM     17  C1  BGC C   2      56.081  36.663  28.9110  0.00  0.00     0.000 C
ATOM     18  C2  BGC C   2      54.740  36.204  28.3600  0.00  0.00     0.000 C
ATOM     19  C3  BGC C   2      54.831  35.948  26.8620  0.00  0.00     0.000 C
ATOM     20  C4  BGC C   2      55.422  37.140  26.1870  0.00  0.00     0.000 C
ATOM     21  C5  BGC C   2      56.722  37.564  26.8630  0.00  0.00     0.000 C
ATOM     22  O5  BGC C   2      56.523  37.799  28.2240  0.00  0.00     0.000 O
ATOM     23   O  BGC C   2      54.340  35.010  29.0500  0.00  0.00     0.000 O
ATOM     25  HD  BGC C   2      53.987  34.449  28.4920  0.00  0.00     0.000 HD
ATOM     25   O  BGC C   2      53.526  35.702  26.3500  0.00  0.00     0.000 O
ATOM     27  HD  BGC C   2      53.174  35.141  25.7930  0.00  0.00     0.000 HD
ATOM     27   C  BGC C   2      57.398  38.805  26.2420  0.00  0.00     0.000 C
ATOM     28   O  BGC C   2      56.489  39.916  26.1810  0.00  0.00     0.000 O
ATOM     30  HD  BGC C   2      56.137  39.355  25.6240  0.00  0.00     0.000 HD
BRANCH 17 30
ATOM     30  O4  BGC C   3      55.936  36.991  30.2760  0.00  0.00     0.000 O
BRANCH 30 34
ATOM     31  C1  BGC C   3      57.934  36.777  33.7830  0.00  0.00     0.000 C
ATOM     32  C2  BGC C   3      58.271  37.997  32.8920  0.00  0.00     0.000 C
ATOM     33  C3  BGC C   3      57.258  38.174  31.8150  0.00  0.00     0.000 C
ATOM     34  C4  BGC C   3      57.092  36.839  31.0850  0.00  0.00     0.000 C
ATOM     35  C5  BGC C   3      56.882  35.630  32.0320  0.00  0.00     0.000 C
ATOM     36  O5  BGC C   3      57.889  35.602  33.0120  0.00  0.00     0.000 O
ATOM     37   O  BGC C   3      58.422  39.260  33.5120  0.00  0.00     0.000 O
ATOM     39  HD  BGC C   3      58.129  38.828  32.8220  0.00  0.00     0.000 HD
ATOM     39   O  BGC C   3      57.676  39.227  30.8980  0.00  0.00     0.000 O
ATOM     41  HD  BGC C   3      57.382  38.794  30.2070  0.00  0.00     0.000 HD
ATOM     41   C  BGC C   3      56.894  34.246  31.3420  0.00  0.00     0.000 C
ATOM     42   O  BGC C   3      58.172  33.868  30.7170  0.00  0.00     0.000 O
ATOM     44  HD  BGC C   3      57.879  33.435  30.0260  0.00  0.00     0.000 HD
BRANCH 31 44
ATOM     44  O4  BGC C   4      58.880  36.617  34.7870  0.00  0.00     0.000 O
BRANCH 44 48
ATOM     45  C1  BGC C   4      59.446  35.619  38.7160  0.00  0.00     0.000 C
ATOM     46  C2  BGC C   4      59.063  34.369  37.8610  0.00  0.00     0.000 C
ATOM     47  C3  BGC C   4      59.209  34.905  36.4310  0.00  0.00     0.000 C
ATOM     48  C4  BGC C   4      58.509  36.199  36.0670  0.00  0.00     0.000 C
ATOM     49  C5  BGC C   4      59.038  37.261  37.0440  0.00  0.00     0.000 C
ATOM     50  O5  BGC C   4      58.841  36.870  38.3580  0.00  0.00     0.000 O
ATOM     51   O  BGC C   4      59.827  33.035  37.9380  0.00  0.00     0.000 O
ATOM     53  HD  BGC C   4      59.567  32.484  37.3220  0.00  0.00     0.000 HD
ATOM     53   O  BGC C   4      58.446  33.847  35.6820  0.00  0.00     0.000 O
ATOM     55  HD  BGC C   4      58.186  33.297  35.0660  0.00  0.00     0.000 HD
ATOM     55   C  BGC C   4      58.295  38.564  36.8940  0.00  0.00     0.000 C
ATOM     56   O  BGC C   4      56.873  38.487  37.0450  0.00  0.00     0.000 O
ATOM     58  HD  BGC C   4      56.613  37.936  36.4290  0.00  0.00     0.000 HD
BRANCH 45 58
ATOM     58  O4  BGC C   5      59.152  35.441  40.0700  0.00  0.00     0.000 O
BRANCH 58 62
ATOM     59  C1  BGC C   5      61.245  33.585  41.3060  0.00  0.00     0.000 C
ATOM     60  C2  BGC C   5      60.354  33.969  42.3800  0.00  0.00     0.000 C
ATOM     61  C3  BGC C   5      60.019  35.459  42.3950  0.00  0.00     0.000 C
ATOM     62  C4  BGC C   5      60.131  36.003  40.9780  0.00  0.00     0.000 C
ATOM     63  C5  BGC C   5      61.411  35.458  40.3880  0.00  0.00     0.000 C
ATOM     64  O5  BGC C   5      62.045  34.361  41.0430  0.00  0.00     0.000 O
ATOM     65   O  BGC C   5      62.855  37.104  41.4080  0.00  0.00     0.000 O
ATOM     67  HD  BGC C   5      62.393  36.877  40.7120  0.00  0.00     0.000 HD
ATOM     67   O  BGC C   5      62.855  37.104  41.4080  0.00  0.00     0.000 O
ATOM     69  HD  BGC C   5      62.393  36.877  40.7120  0.00  0.00     0.000 HD
ENDBRANCH 58 62
ENDBRANCH 45 58
ENDBRANCH 44 48
ENDBRANCH 31 44
ENDBRANCH 30 34
ENDBRANCH 17 30
ENDBRANCH 16 20
ENDBRANCH 1 16
TORSDOF 8
ENDMDL
MODEL 92
REMARK VINA RESULT:      -0.2     65.873     68.682
ROOT
ATOM      1  C1  BGC C   1      43.106  56.693  35.3170  0.00  0.00     0.000 C
ATOM      2  C2  BGC C   1      41.766  56.965  35.9990  0.00  0.00     0.000 C
ATOM      3  C3  BGC C   1      41.925  56.886  37.5130  0.00  0.00     0.000 C
ATOM      4  C4  BGC C   1      42.624  55.610  37.9520  0.00  0.00     0.000 C
ATOM      5  C5  BGC C   1      43.862  55.364  37.0940  0.00  0.00     0.000 C
ATOM      6  O5  BGC C   1      43.632  55.489  35.7270  0.00  0.00     0.000 O
ATOM      7   O  BGC C   1      41.351  58.255  35.6180  0.00  0.00     0.000 O
ATOM      9  HD  BGC C   1      40.849  57.630  35.9460  0.00  0.00     0.000 HD
ATOM      9   O  BGC C   1      40.625  57.016  38.1040  0.00  0.00     0.000 O
ATOM     11  HD  BGC C   1      40.123  56.391  38.4330  0.00  0.00     0.000 HD
ATOM     11   O  BGC C   1      42.975  55.783  39.3200  0.00  0.00     0.000 O
ATOM     13  HD  BGC C   1      42.473  55.158  39.6490  0.00  0.00     0.000 HD
ATOM     13   O  BGC C   1      43.444  52.932  36.8780  0.00  0.00     0.000 O
ATOM     15  HD  BGC C   1      42.942  52.307  37.2060  0.00  0.00     0.000 HD
ATOM     15   C  BGC C   1      44.367  53.938  37.3790  0.00  0.00     0.000 C
ENDROOT
BRANCH 1 16
ATOM     16  O4  BGC C   2      42.893  56.598  33.9280  0.00  0.00     0.000 O
BRANCH 16 20
ATOM     17  C1  BGC C   2      44.929  57.429  30.4880  0.00  0.00     0.000 C
ATOM     18  C2  BGC C   2      45.260  56.102  31.1520  0.00  0.00     0.000 C
ATOM     19  C3  BGC C   2      44.207  55.740  32.1890  0.00  0.00     0.000 C
ATOM     20  C4  BGC C   2      44.011  56.887  33.1230  0.00  0.00     0.000 C
ATOM     21  C5  BGC C   2      43.762  58.182  32.3550  0.00  0.00     0.000 C
ATOM     22  O5  BGC C   2      44.796  58.434  31.4530  0.00  0.00     0.000 O
ATOM     23   O  BGC C   2      45.339  55.085  30.1410  0.00  0.00     0.000 O
ATOM     25  HD  BGC C   2      44.972  54.355  30.4260  0.00  0.00     0.000 HD
ATOM     25   O  BGC C   2      44.640  54.597  32.9160  0.00  0.00     0.000 O
ATOM     27  HD  BGC C   2      44.273  53.866  33.2000  0.00  0.00     0.000 HD
ATOM     27   C  BGC C   2      43.566  59.430  33.2410  0.00  0.00     0.000 C
ATOM     28   O  BGC C   2      44.665  59.601  34.1500  0.00  0.00     0.000 O
ATOM     30  HD  BGC C   2      44.298  58.870  34.4350  0.00  0.00     0.000 HD
BRANCH 17 30
ATOM     30  O4  BGC C   3      45.976  57.785  29.6100  0.00  0.00     0.000 O
BRANCH 30 34
ATOM     31  C1  BGC C   3      46.604  59.550  26.0290  0.00  0.00     0.000 C
ATOM     32  C2  BGC C   3      46.462  60.510  27.2340  0.00  0.00     0.000 C
ATOM     33  C3  BGC C   3      46.583  59.776  28.5240  0.00  0.00     0.000 C
ATOM     34  C4  BGC C   3      45.617  58.590  28.4980  0.00  0.00     0.000 C
ATOM     35  C5  BGC C   3      45.714  57.732  27.2100  0.00  0.00     0.000 C
ATOM     36  O5  BGC C   3      45.613  58.553  26.0730  0.00  0.00     0.000 O
ATOM     37   O  BGC C   3      47.339  61.618  27.3180  0.00  0.00     0.000 O
ATOM     39  HD  BGC C   3      46.918  60.998  27.7520  0.00  0.00     0.000 HD
ATOM     39   O  BGC C   3      46.292  60.668  29.6400  0.00  0.00     0.000 O
ATOM     41  HD  BGC C   3      45.871  60.048  30.0750  0.00  0.00     0.000 HD
ATOM     41   C  BGC C   3      44.632  56.638  27.0670  0.00  0.00     0.000 C
ATOM     42   O  BGC C   3      43.250  57.134  26.9460  0.00  0.00     0.000 O
ATOM     44  HD  BGC C   3      42.830  56.514  27.3800  0.00  0.00     0.000 HD
BRANCH 31 44
ATOM     44  O4  BGC C   4      46.491  60.238  24.8280  0.00  0.00     0.000 O
BRANCH 44 48
ATOM     45  C1  BGC C   4      47.916  60.536  21.0010  0.00  0.00     0.000 C
ATOM     46  C2  BGC C   4      47.061  59.243  21.1910  0.00  0.00     0.000 C
ATOM     47  C3  BGC C   4      46.396  59.497  22.5500  0.00  0.00     0.000 C
ATOM     48  C4  BGC C   4      47.273  59.892  23.7230  0.00  0.00     0.000 C
ATOM     49  C5  BGC C   4      48.013  61.169  23.2930  0.00  0.00     0.000 C
ATOM     50  O5  BGC C   4      48.714  60.965  22.1160  0.00  0.00     0.000 O
ATOM     51   O  BGC C   4      45.956  58.818  20.2060  0.00  0.00     0.000 O
ATOM     53  HD  BGC C   4      45.500  58.148  20.5110  0.00  0.00     0.000 HD
ATOM     53   O  BGC C   4      45.944  58.101  22.8790  0.00  0.00     0.000 O
ATOM     55  HD  BGC C   4      45.487  57.432  23.1840  0.00  0.00     0.000 HD
ATOM     55   C  BGC C   4      49.045  61.574  24.3130  0.00  0.00     0.000 C
ATOM     56   O  BGC C   4      50.023  60.578  24.6350  0.00  0.00     0.000 O
ATOM     58  HD  BGC C   4      49.567  59.908  24.9400  0.00  0.00     0.000 HD
BRANCH 45 58
ATOM     58  O4  BGC C   5      48.807  60.426  19.9310  0.00  0.00     0.000 O
BRANCH 58 62
ATOM     59  C1  BGC C   5      47.256  60.715  17.3120  0.00  0.00     0.000 C
ATOM     60  C2  BGC C   5      48.647  60.558  16.9480  0.00  0.00     0.000 C
ATOM     61  C3  BGC C   5      49.600  61.400  17.7910  0.00  0.00     0.000 C
ATOM     62  C4  BGC C   5      48.970  61.640  19.1560  0.00  0.00     0.000 C
ATOM     63  C5  BGC C   5      47.527  62.022  18.9230  0.00  0.00     0.000 C
ATOM     64  O5  BGC C   5      46.960  61.772  17.6380  0.00  0.00     0.000 O
ATOM     65   O  BGC C   5      47.980  64.346  18.4420  0.00  0.00     0.000 O
ATOM     67  HD  BGC C   5      47.767  63.757  19.0400  0.00  0.00     0.000 HD
ATOM     67   O  BGC C   5      47.980  64.346  18.4420  0.00  0.00     0.000 O
ATOM     69  HD  BGC C   5      47.767  63.757  19.0400  0.00  0.00     0.000 HD
ENDBRANCH 58 62
ENDBRANCH 45 58
ENDBRANCH 44 48
ENDBRANCH 31 44
ENDBRANCH 30 34
ENDBRANCH 17 30
ENDBRANCH 16 20
ENDBRANCH 1 16
TORSDOF 8
ENDMDL
MODEL 93
REMARK VINA RESULT:      -0.2     73.344     75.786
ROOT
ATOM      1  C1  BGC C   1      59.458  50.528  42.4620  0.00  0.00     0.000 C
ATOM      2  C2  BGC C   1      58.150  50.903  43.1580  0.00  0.00     0.000 C
ATOM      3  C3  BGC C   1      57.400  51.942  42.3340  0.00  0.00     0.000 C
ATOM      4  C4  BGC C   1      58.284  53.116  41.9470  0.00  0.00     0.000 C
ATOM      5  C5  BGC C   1      59.622  52.616  41.4100  0.00  0.00     0.000 C
ATOM      6  O5  BGC C   1      60.220  51.645  42.2090  0.00  0.00     0.000 O
ATOM      7   O  BGC C   1      57.384  49.728  43.2790  0.00  0.00     0.000 O
ATOM      9  HD  BGC C   1      57.279  50.460  43.7310  0.00  0.00     0.000 HD
ATOM      9   O  BGC C   1      56.251  52.360  43.0840  0.00  0.00     0.000 O
ATOM     11  HD  BGC C   1      56.146  53.091  43.5360  0.00  0.00     0.000 HD
ATOM     11   O  BGC C   1      57.577  53.853  40.9550  0.00  0.00     0.000 O
ATOM     13  HD  BGC C   1      57.472  54.585  41.4070  0.00  0.00     0.000 HD
ATOM     13   O  BGC C   1      60.944  54.331  42.6120  0.00  0.00     0.000 O
ATOM     15  HD  BGC C   1      60.839  55.062  43.0640  0.00  0.00     0.000 HD
ATOM     15   C  BGC C   1      60.575  53.820  41.3020  0.00  0.00     0.000 C
ENDROOT
BRANCH 1 16
ATOM     16  O4  BGC C   2      60.208  49.706  43.3250  0.00  0.00     0.000 O
BRANCH 16 20
ATOM     17  C1  BGC C   2      62.870  46.625  43.0200  0.00  0.00     0.000 C
ATOM     18  C2  BGC C   2      63.447  48.021  42.8460  0.00  0.00     0.000 C
ATOM     19  C3  BGC C   2      62.464  49.075  43.3340  0.00  0.00     0.000 C
ATOM     20  C4  BGC C   2      61.134  48.852  42.6960  0.00  0.00     0.000 C
ATOM     21  C5  BGC C   2      60.683  47.404  42.8620  0.00  0.00     0.000 C
ATOM     22  O5  BGC C   2      61.641  46.522  42.3600  0.00  0.00     0.000 O
ATOM     23   O  BGC C   2      64.680  48.108  43.5760  0.00  0.00     0.000 O
ATOM     25  HD  BGC C   2      64.737  48.876  43.9710  0.00  0.00     0.000 HD
ATOM     25   O  BGC C   2      62.953  50.366  42.9890  0.00  0.00     0.000 O
ATOM     27  HD  BGC C   2      63.011  51.134  43.3840  0.00  0.00     0.000 HD
ATOM     27   C  BGC C   2      59.322  47.073  42.2150  0.00  0.00     0.000 C
ATOM     28   O  BGC C   2      59.304  47.438  40.8260  0.00  0.00     0.000 O
ATOM     30  HD  BGC C   2      59.361  48.206  41.2210  0.00  0.00     0.000 HD
BRANCH 17 30
ATOM     30  O4  BGC C   3      63.760  45.681  42.4630  0.00  0.00     0.000 O
BRANCH 30 34
ATOM     31  C1  BGC C   3      65.169  41.945  43.0950  0.00  0.00     0.000 C
ATOM     32  C2  BGC C   3      63.821  42.035  42.3420  0.00  0.00     0.000 C
ATOM     33  C3  BGC C   3      63.565  43.420  41.8590  0.00  0.00     0.000 C
ATOM     34  C4  BGC C   3      63.737  44.382  43.0370  0.00  0.00     0.000 C
ATOM     35  C5  BGC C   3      65.049  44.166  43.8330  0.00  0.00     0.000 C
ATOM     36  O5  BGC C   3      65.175  42.815  44.2000  0.00  0.00     0.000 O
ATOM     37   O  BGC C   3      63.611  41.178  41.2360  0.00  0.00     0.000 O
ATOM     39  HD  BGC C   3      63.486  41.968  41.5690  0.00  0.00     0.000 HD
ATOM     39   O  BGC C   3      62.225  43.517  41.2920  0.00  0.00     0.000 O
ATOM     41  HD  BGC C   3      62.100  44.306  41.6250  0.00  0.00     0.000 HD
ATOM     41   C  BGC C   3      65.171  44.994  45.1330  0.00  0.00     0.000 C
ATOM     42   O  BGC C   3      64.178  44.677  46.1740  0.00  0.00     0.000 O
ATOM     44  HD  BGC C   3      64.053  45.466  46.5070  0.00  0.00     0.000 HD
BRANCH 31 44
ATOM     44  O4  BGC C   4      65.405  40.652  43.5430  0.00  0.00     0.000 O
BRANCH 44 48
ATOM     45  C1  BGC C   4      68.265  37.775  44.0900  0.00  0.00     0.000 C
ATOM     46  C2  BGC C   4      68.435  38.947  45.1080  0.00  0.00     0.000 C
ATOM     47  C3  BGC C   4      67.119  39.715  44.9320  0.00  0.00     0.000 C
ATOM     48  C4  BGC C   4      66.691  40.108  43.5310  0.00  0.00     0.000 C
ATOM     49  C5  BGC C   4      66.606  38.801  42.7270  0.00  0.00     0.000 C
ATOM     50  O5  BGC C   4      67.806  38.110  42.7720  0.00  0.00     0.000 O
ATOM     51   O  BGC C   4      68.644  38.723  46.6170  0.00  0.00     0.000 O
ATOM     53  HD  BGC C   4      68.604  39.468  47.0570  0.00  0.00     0.000 HD
ATOM     53   O  BGC C   4      67.494  41.018  45.5830  0.00  0.00     0.000 O
ATOM     55  HD  BGC C   4      67.454  41.763  46.0230  0.00  0.00     0.000 HD
ATOM     55   C  BGC C   4      66.348  39.070  41.2680  0.00  0.00     0.000 C
ATOM     56   O  BGC C   4      67.292  39.931  40.6200  0.00  0.00     0.000 O
ATOM     58  HD  BGC C   4      67.252  40.676  41.0600  0.00  0.00     0.000 HD
BRANCH 45 58
ATOM     58  O4  BGC C   5      69.453  37.066  43.8980  0.00  0.00     0.000 O
BRANCH 58 62
ATOM     59  C1  BGC C   5      69.948  35.277  46.3280  0.00  0.00     0.000 C
ATOM     60  C2  BGC C   5      71.031  35.021  45.4040  0.00  0.00     0.000 C
ATOM     61  C3  BGC C   5      70.576  34.855  43.9570  0.00  0.00     0.000 C
ATOM     62  C4  BGC C   5      69.285  35.634  43.7540  0.00  0.00     0.000 C
ATOM     63  C5  BGC C   5      68.390  35.335  44.9340  0.00  0.00     0.000 C
ATOM     64  O5  BGC C   5      68.971  34.731  46.0880  0.00  0.00     0.000 O
ATOM     65   O  BGC C   5      67.559  33.239  44.0650  0.00  0.00     0.000 O
ATOM     67  HD  BGC C   5      67.435  34.093  44.1400  0.00  0.00     0.000 HD
ATOM     67   O  BGC C   5      67.559  33.239  44.0650  0.00  0.00     0.000 O
ATOM     69  HD  BGC C   5      67.435  34.093  44.1400  0.00  0.00     0.000 HD
ENDBRANCH 58 62
ENDBRANCH 45 58
ENDBRANCH 44 48
ENDBRANCH 31 44
ENDBRANCH 30 34
ENDBRANCH 17 30
ENDBRANCH 16 20
ENDBRANCH 1 16
TORSDOF 8
ENDMDL
MODEL 94
REMARK VINA RESULT:      -0.2     50.936     53.466
ROOT
ATOM      1  C1  BGC C   1       6.245  35.947  51.1480  0.00  0.00     0.000 C
ATOM      2  C2  BGC C   1       4.751  35.782  50.8720  0.00  0.00     0.000 C
ATOM      3  C3  BGC C   1       3.944  36.216  52.0890  0.00  0.00     0.000 C
ATOM      4  C4  BGC C   1       4.438  35.564  53.3700  0.00  0.00     0.000 C
ATOM      5  C5  BGC C   1       5.959  35.657  53.4560  0.00  0.00     0.000 C
ATOM      6  O5  BGC C   1       6.613  35.272  52.2890  0.00  0.00     0.000 O
ATOM      7   O  BGC C   1       4.435  36.588  49.7620  0.00  0.00     0.000 O
ATOM      9  HD  BGC C   1       3.965  35.929  50.0690  0.00  0.00     0.000 HD
ATOM      9   O  BGC C   1       2.563  35.922  51.8350  0.00  0.00     0.000 O
ATOM     11  HD  BGC C   1       2.093  35.263  52.1420  0.00  0.00     0.000 HD
ATOM     11   O  BGC C   1       3.821  36.257  54.4490  0.00  0.00     0.000 O
ATOM     13  HD  BGC C   1       3.350  35.597  54.7560  0.00  0.00     0.000 HD
ATOM     13   O  BGC C   1       6.227  33.341  54.2950  0.00  0.00     0.000 O
ATOM     15  HD  BGC C   1       5.757  32.682  54.6020  0.00  0.00     0.000 HD
ATOM     15   C  BGC C   1       6.430  34.748  54.6060  0.00  0.00     0.000 C
ENDROOT
BRANCH 1 16
ATOM     16  O4  BGC C   2       6.966  35.377  50.0820  0.00  0.00     0.000 O
BRANCH 16 20
ATOM     17  C1  BGC C   2      10.503  36.002  48.1390  0.00  0.00     0.000 C
ATOM     18  C2  BGC C   2      10.587  35.207  49.4330  0.00  0.00     0.000 C
ATOM     19  C3  BGC C   2       9.207  34.731  49.8640  0.00  0.00     0.000 C
ATOM     20  C4  BGC C   2       8.264  35.886  49.8870  0.00  0.00     0.000 C
ATOM     21  C5  BGC C   2       8.313  36.660  48.5720  0.00  0.00     0.000 C
ATOM     22  O5  BGC C   2       9.615  37.073  48.2850  0.00  0.00     0.000 O
ATOM     23   O  BGC C   2      11.465  34.089  49.2340  0.00  0.00     0.000 O
ATOM     25  HD  BGC C   2      11.144  33.386  49.6250  0.00  0.00     0.000 HD
ATOM     25   O  BGC C   2       9.296  34.155  51.1620  0.00  0.00     0.000 O
ATOM     27  HD  BGC C   2       8.975  33.453  51.5530  0.00  0.00     0.000 HD
ATOM     27   C  BGC C   2       7.382  37.888  48.5110  0.00  0.00     0.000 C
ATOM     28   O  BGC C   2       7.619  38.777  49.6140  0.00  0.00     0.000 O
ATOM     30  HD  BGC C   2       7.298  38.075  50.0050  0.00  0.00     0.000 HD
BRANCH 17 30
ATOM     30  O4  BGC C   3      11.780  36.516  47.8250  0.00  0.00     0.000 O
BRANCH 30 34
ATOM     31  C1  BGC C   3      14.161  37.274  44.6480  0.00  0.00     0.000 C
ATOM     32  C2  BGC C   3      13.125  38.372  44.9870  0.00  0.00     0.000 C
ATOM     33  C3  BGC C   3      12.549  38.169  46.3450  0.00  0.00     0.000 C
ATOM     34  C4  BGC C   3      12.051  36.725  46.4470  0.00  0.00     0.000 C
ATOM     35  C5  BGC C   3      13.086  35.671  45.9780  0.00  0.00     0.000 C
ATOM     36  O5  BGC C   3      13.566  36.001  44.6980  0.00  0.00     0.000 O
ATOM     37   O  BGC C   3      13.534  39.725  44.9220  0.00  0.00     0.000 O
ATOM     39  HD  BGC C   3      13.058  39.136  45.3420  0.00  0.00     0.000 HD
ATOM     39   O  BGC C   3      11.467  39.117  46.5800  0.00  0.00     0.000 O
ATOM     41  HD  BGC C   3      10.991  38.528  47.0010  0.00  0.00     0.000 HD
ATOM     41   C  BGC C   3      12.555  34.222  45.8950  0.00  0.00     0.000 C
ATOM     42   O  BGC C   3      11.489  34.000  44.9030  0.00  0.00     0.000 O
ATOM     44  HD  BGC C   3      11.014  33.411  45.3240  0.00  0.00     0.000 HD
BRANCH 31 44
ATOM     44  O4  BGC C   4      14.697  37.468  43.3820  0.00  0.00     0.000 O
BRANCH 44 48
ATOM     45  C1  BGC C   4      18.109  37.259  41.1290  0.00  0.00     0.000 C
ATOM     46  C2  BGC C   4      17.580  35.835  41.4940  0.00  0.00     0.000 C
ATOM     47  C3  BGC C   4      16.181  36.146  42.0410  0.00  0.00     0.000 C
ATOM     48  C4  BGC C   4      16.043  37.202  43.1200  0.00  0.00     0.000 C
ATOM     49  C5  BGC C   4      16.637  38.493  42.5330  0.00  0.00     0.000 C
ATOM     50  O5  BGC C   4      17.940  38.294  42.1100  0.00  0.00     0.000 O
ATOM     51   O  BGC C   4      17.433  34.706  40.4580  0.00  0.00     0.000 O
ATOM     53  HD  BGC C   4      17.020  34.021  40.7910  0.00  0.00     0.000 HD
ATOM     53   O  BGC C   4      15.890  34.852  42.7510  0.00  0.00     0.000 O
ATOM     55  HD  BGC C   4      15.477  34.168  43.0840  0.00  0.00     0.000 HD
ATOM     55   C  BGC C   4      16.711  39.584  43.5700  0.00  0.00     0.000 C
ATOM     56   O  BGC C   4      17.438  39.259  44.7610  0.00  0.00     0.000 O
ATOM     58  HD  BGC C   4      17.025  38.575  45.0940  0.00  0.00     0.000 HD
BRANCH 45 58
ATOM     58  O4  BGC C   5      19.473  37.254  40.8280  0.00  0.00     0.000 O
BRANCH 58 62
ATOM     59  C1  BGC C   5      19.872  36.068  38.0380  0.00  0.00     0.000 C
ATOM     60  C2  BGC C   5      21.185  36.445  38.5140  0.00  0.00     0.000 C
ATOM     61  C3  BGC C   5      21.228  37.822  39.1700  0.00  0.00     0.000 C
ATOM     62  C4  BGC C   5      19.855  38.137  39.7450  0.00  0.00     0.000 C
ATOM     63  C5  BGC C   5      18.832  37.760  38.6990  0.00  0.00     0.000 C
ATOM     64  O5  BGC C   5      19.248  36.930  37.6150  0.00  0.00     0.000 O
ATOM     65   O  BGC C   5      19.047  39.800  37.4230  0.00  0.00     0.000 O
ATOM     67  HD  BGC C   5      18.620  39.376  38.0460  0.00  0.00     0.000 HD
ATOM     67   O  BGC C   5      19.047  39.800  37.4230  0.00  0.00     0.000 O
ATOM     69  HD  BGC C   5      18.620  39.376  38.0460  0.00  0.00     0.000 HD
ENDBRANCH 58 62
ENDBRANCH 45 58
ENDBRANCH 44 48
ENDBRANCH 31 44
ENDBRANCH 30 34
ENDBRANCH 17 30
ENDBRANCH 16 20
ENDBRANCH 1 16
TORSDOF 8
ENDMDL
MODEL 95
REMARK VINA RESULT:      -0.2     69.713     72.866
ROOT
ATOM      1  C1  BGC C   1      56.845   7.257  62.1730  0.00  0.00     0.000 C
ATOM      2  C2  BGC C   1      57.817   7.245  60.9940  0.00  0.00     0.000 C
ATOM      3  C3  BGC C   1      58.179   5.810  60.6300  0.00  0.00     0.000 C
ATOM      4  C4  BGC C   1      58.622   5.004  61.8400  0.00  0.00     0.000 C
ATOM      5  C5  BGC C   1      57.657   5.220  63.0010  0.00  0.00     0.000 C
ATOM      6  O5  BGC C   1      57.357   6.558  63.2420  0.00  0.00     0.000 O
ATOM      7   O  BGC C   1      57.177   7.878  59.9120  0.00  0.00     0.000 O
ATOM      9  HD  BGC C   1      58.028   7.745  59.9990  0.00  0.00     0.000 HD
ATOM      9   O  BGC C   1      59.188   5.850  59.6120  0.00  0.00     0.000 O
ATOM     11  HD  BGC C   1      60.039   5.717  59.6990  0.00  0.00     0.000 HD
ATOM     11   O  BGC C   1      58.644   3.639  61.4390  0.00  0.00     0.000 O
ATOM     13  HD  BGC C   1      59.495   3.506  61.5260  0.00  0.00     0.000 HD
ATOM     13   O  BGC C   1      59.457   5.384  64.6960  0.00  0.00     0.000 O
ATOM     15  HD  BGC C   1      60.308   5.251  64.7830  0.00  0.00     0.000 HD
ATOM     15   C  BGC C   1      58.292   4.623  64.2700  0.00  0.00     0.000 C
ENDROOT
BRANCH 1 16
ATOM     16  O4  BGC C   2      56.669   8.588  62.5980  0.00  0.00     0.000 O
BRANCH 16 20
ATOM     17  C1  BGC C   2      53.718  10.874  64.2550  0.00  0.00     0.000 C
ATOM     18  C2  BGC C   2      54.521  10.020  65.2240  0.00  0.00     0.000 C
ATOM     19  C3  BGC C   2      55.795   9.510  64.5660  0.00  0.00     0.000 C
ATOM     20  C4  BGC C   2      55.460   8.855  63.2680  0.00  0.00     0.000 C
ATOM     21  C5  BGC C   2      54.590   9.764  62.4040  0.00  0.00     0.000 C
ATOM     22  O5  BGC C   2      53.438  10.151  63.0900  0.00  0.00     0.000 O
ATOM     23   O  BGC C   2      54.834  10.806  66.3840  0.00  0.00     0.000 O
ATOM     25  HD  BGC C   2      55.646  10.645  66.6410  0.00  0.00     0.000 HD
ATOM     25   O  BGC C   2      56.424   8.572  65.4300  0.00  0.00     0.000 O
ATOM     27  HD  BGC C   2      57.236   8.411  65.6880  0.00  0.00     0.000 HD
ATOM     27   C  BGC C   2      54.176   9.161  61.0460  0.00  0.00     0.000 C
ATOM     28   O  BGC C   2      53.537   7.885  61.2160  0.00  0.00     0.000 O
ATOM     30  HD  BGC C   2      54.349   7.724  61.4730  0.00  0.00     0.000 HD
BRANCH 17 30
ATOM     30  O4  BGC C   3      52.497  11.242  64.8600  0.00  0.00     0.000 O
BRANCH 30 34
ATOM     31  C1  BGC C   3      49.913  14.342  65.0770  0.00  0.00     0.000 C
ATOM     32  C2  BGC C   3      49.735  13.405  63.8590  0.00  0.00     0.000 C
ATOM     33  C3  BGC C   3      50.481  12.129  64.0470  0.00  0.00     0.000 C
ATOM     34  C4  BGC C   3      51.925  12.466  64.4260  0.00  0.00     0.000 C
ATOM     35  C5  BGC C   3      52.046  13.506  65.5690  0.00  0.00     0.000 C
ATOM     36  O5  BGC C   3      51.273  14.642  65.2740  0.00  0.00     0.000 O
ATOM     37   O  BGC C   3      48.421  13.048  63.4710  0.00  0.00     0.000 O
ATOM     39  HD  BGC C   3      49.241  12.785  63.5640  0.00  0.00     0.000 HD
ATOM     39   O  BGC C   3      50.428  11.330  62.8290  0.00  0.00     0.000 O
ATOM     41  HD  BGC C   3      51.248  11.067  62.9210  0.00  0.00     0.000 HD
ATOM     41   C  BGC C   3      53.481  14.005  65.8530  0.00  0.00     0.000 C
ATOM     42   O  BGC C   3      54.114  14.753  64.7530  0.00  0.00     0.000 O
ATOM     44  HD  BGC C   3      54.934  14.489  64.8460  0.00  0.00     0.000 HD
BRANCH 31 44
ATOM     44  O4  BGC C   4      49.215  15.529  64.8980  0.00  0.00     0.000 O
BRANCH 44 48
ATOM     45  C1  BGC C   4      46.936  18.378  66.7550  0.00  0.00     0.000 C
ATOM     46  C2  BGC C   4      48.430  18.464  67.2030  0.00  0.00     0.000 C
ATOM     47  C3  BGC C   4      49.121  17.552  66.1810  0.00  0.00     0.000 C
ATOM     48  C4  BGC C   4      48.571  16.155  65.9680  0.00  0.00     0.000 C
ATOM     49  C5  BGC C   4      47.102  16.333  65.5500  0.00  0.00     0.000 C
ATOM     50  O5  BGC C   4      46.403  17.071  66.4910  0.00  0.00     0.000 O
ATOM     51   O  BGC C   4      49.216  19.787  67.2500  0.00  0.00     0.000 O
ATOM     53  HD  BGC C   4      50.057  19.652  67.4040  0.00  0.00     0.000 HD
ATOM     53   O  BGC C   4      50.433  17.330  66.8820  0.00  0.00     0.000 O
ATOM     55  HD  BGC C   4      51.274  17.194  67.0360  0.00  0.00     0.000 HD
ATOM     55   C  BGC C   4      46.391  15.007  65.4670  0.00  0.00     0.000 C
ATOM     56   O  BGC C   4      46.423  14.211  66.6570  0.00  0.00     0.000 O
ATOM     58  HD  BGC C   4      47.264  14.075  66.8110  0.00  0.00     0.000 HD
BRANCH 45 58
ATOM     58  O4  BGC C   5      46.071  18.946  67.6940  0.00  0.00     0.000 O
BRANCH 58 62
ATOM     59  C1  BGC C   5      46.259  21.993  67.5040  0.00  0.00     0.000 C
ATOM     60  C2  BGC C   5      45.265  21.706  68.5160  0.00  0.00     0.000 C
ATOM     61  C3  BGC C   5      44.281  20.611  68.1160  0.00  0.00     0.000 C
ATOM     62  C4  BGC C   5      44.958  19.678  67.1230  0.00  0.00     0.000 C
ATOM     63  C5  BGC C   5      45.677  20.542  66.1130  0.00  0.00     0.000 C
ATOM     64  O5  BGC C   5      45.883  21.918  66.4250  0.00  0.00     0.000 O
ATOM     65   O  BGC C   5      43.726  20.981  64.7570  0.00  0.00     0.000 O
ATOM     67  HD  BGC C   5      44.424  20.484  64.8840  0.00  0.00     0.000 HD
ATOM     67   O  BGC C   5      43.726  20.981  64.7570  0.00  0.00     0.000 O
ATOM     69  HD  BGC C   5      44.424  20.484  64.8840  0.00  0.00     0.000 HD
ENDBRANCH 58 62
ENDBRANCH 45 58
ENDBRANCH 44 48
ENDBRANCH 31 44
ENDBRANCH 30 34
ENDBRANCH 17 30
ENDBRANCH 16 20
ENDBRANCH 1 16
TORSDOF 8
ENDMDL
MODEL 96
REMARK VINA RESULT:      -0.2     31.812     36.918
ROOT
ATOM      1  C1  BGC C   1      36.651  32.852  15.0770  0.00  0.00     0.000 C
ATOM      2  C2  BGC C   1      37.501  32.957  13.8110  0.00  0.00     0.000 C
ATOM      3  C3  BGC C   1      37.876  34.411  13.5540  0.00  0.00     0.000 C
ATOM      4  C4  BGC C   1      36.668  35.333  13.5980  0.00  0.00     0.000 C
ATOM      5  C5  BGC C   1      35.815  35.027  14.8250  0.00  0.00     0.000 C
ATOM      6  O5  BGC C   1      35.549  33.671  15.0010  0.00  0.00     0.000 O
ATOM      7   O  BGC C   1      38.659  32.182  14.0140  0.00  0.00     0.000 O
ATOM      9  HD  BGC C   1      38.345  32.448  13.2520  0.00  0.00     0.000 HD
ATOM      9   O  BGC C   1      38.557  34.478  12.2930  0.00  0.00     0.000 O
ATOM     11  HD  BGC C   1      38.243  34.745  11.5310  0.00  0.00     0.000 HD
ATOM     11   O  BGC C   1      37.168  36.665  13.6410  0.00  0.00     0.000 O
ATOM     13  HD  BGC C   1      36.855  36.931  12.8790  0.00  0.00     0.000 HD
ATOM     13   O  BGC C   1      33.671  35.224  13.5990  0.00  0.00     0.000 O
ATOM     15  HD  BGC C   1      33.357  35.490  12.8370  0.00  0.00     0.000 HD
ATOM     15   C  BGC C   1      34.477  35.774  14.6770  0.00  0.00     0.000 C
ENDROOT
BRANCH 1 16
ATOM     16  O4  BGC C   2      36.176  31.531  15.1920  0.00  0.00     0.000 O
BRANCH 16 20
ATOM     17  C1  BGC C   2      35.226  28.901  18.1680  0.00  0.00     0.000 C
ATOM     18  C2  BGC C   2      34.151  29.913  17.8070  0.00  0.00     0.000 C
ATOM     19  C3  BGC C   2      34.462  30.581  16.4760  0.00  0.00     0.000 C
ATOM     20  C4  BGC C   2      35.855  31.114  16.4980  0.00  0.00     0.000 C
ATOM     21  C5  BGC C   2      36.845  30.042  16.9450  0.00  0.00     0.000 C
ATOM     22  O5  BGC C   2      36.483  29.515  18.1860  0.00  0.00     0.000 O
ATOM     23   O  BGC C   2      32.883  29.242  17.7480  0.00  0.00     0.000 O
ATOM     25  HD  BGC C   2      32.422  29.537  17.0770  0.00  0.00     0.000 HD
ATOM     25   O  BGC C   2      33.543  31.645  16.2600  0.00  0.00     0.000 O
ATOM     27  HD  BGC C   2      33.081  31.941  15.5900  0.00  0.00     0.000 HD
ATOM     27   C  BGC C   2      38.314  30.508  17.0170  0.00  0.00     0.000 C
ATOM     28   O  BGC C   2      38.449  31.677  17.8410  0.00  0.00     0.000 O
ATOM     30  HD  BGC C   2      37.987  31.973  17.1710  0.00  0.00     0.000 HD
BRANCH 17 30
ATOM     30  O4  BGC C   3      34.963  28.379  19.4520  0.00  0.00     0.000 O
BRANCH 30 34
ATOM     31  C1  BGC C   3      35.210  24.931  21.5480  0.00  0.00     0.000 C
ATOM     32  C2  BGC C   3      36.508  25.771  21.4820  0.00  0.00     0.000 C
ATOM     33  C3  BGC C   3      36.232  27.153  21.0020  0.00  0.00     0.000 C
ATOM     34  C4  BGC C   3      35.429  27.061  19.7020  0.00  0.00     0.000 C
ATOM     35  C5  BGC C   3      34.209  26.109  19.7860  0.00  0.00     0.000 C
ATOM     36  O5  BGC C   3      34.608  24.854  20.2790  0.00  0.00     0.000 O
ATOM     37   O  BGC C   3      37.284  25.902  22.6580  0.00  0.00     0.000 O
ATOM     39  HD  BGC C   3      36.986  26.292  21.9450  0.00  0.00     0.000 HD
ATOM     39   O  BGC C   3      37.482  27.875  20.7990  0.00  0.00     0.000 O
ATOM     41  HD  BGC C   3      37.184  28.266  20.0860  0.00  0.00     0.000 HD
ATOM     41   C  BGC C   3      33.484  25.850  18.4450  0.00  0.00     0.000 C
ATOM     42   O  BGC C   3      34.286  25.157  17.4230  0.00  0.00     0.000 O
ATOM     44  HD  BGC C   3      33.988  25.548  16.7090  0.00  0.00     0.000 HD
BRANCH 31 44
ATOM     44  O4  BGC C   4      35.472  23.643  21.9970  0.00  0.00     0.000 O
BRANCH 44 48
ATOM     45  C1  BGC C   4      34.089  20.570  24.3220  0.00  0.00     0.000 C
ATOM     46  C2  BGC C   4      33.229  20.737  23.0290  0.00  0.00     0.000 C
ATOM     47  C3  BGC C   4      34.091  21.694  22.1950  0.00  0.00     0.000 C
ATOM     48  C4  BGC C   4      34.577  22.978  22.8390  0.00  0.00     0.000 C
ATOM     49  C5  BGC C   4      35.377  22.557  24.0820  0.00  0.00     0.000 C
ATOM     50  O5  BGC C   4      34.611  21.766  24.9220  0.00  0.00     0.000 O
ATOM     51   O  BGC C   4      32.841  19.554  22.1230  0.00  0.00     0.000 O
ATOM     53  HD  BGC C   4      32.467  19.824  21.3910  0.00  0.00     0.000 HD
ATOM     53   O  BGC C   4      33.068  22.149  21.1900  0.00  0.00     0.000 O
ATOM     55  HD  BGC C   4      32.694  22.419  20.4570  0.00  0.00     0.000 HD
ATOM     55   C  BGC C   4      35.779  23.752  24.9070  0.00  0.00     0.000 C
ATOM     56   O  BGC C   4      34.707  24.600  25.3330  0.00  0.00     0.000 O
ATOM     58  HD  BGC C   4      34.333  24.871  24.6000  0.00  0.00     0.000 HD
BRANCH 45 58
ATOM     58  O4  BGC C   5      33.388  19.922  25.3420  0.00  0.00     0.000 O
BRANCH 58 62
ATOM     59  C1  BGC C   5      33.240  16.935  24.7030  0.00  0.00     0.000 C
ATOM     60  C2  BGC C   5      32.583  17.113  25.9800  0.00  0.00     0.000 C
ATOM     61  C3  BGC C   5      33.345  18.024  26.9390  0.00  0.00     0.000 C
ATOM     62  C4  BGC C   5      34.184  19.002  26.1290  0.00  0.00     0.000 C
ATOM     63  C5  BGC C   5      34.865  18.211  25.0370  0.00  0.00     0.000 C
ATOM     64  O5  BGC C   5      34.384  16.899  24.7510  0.00  0.00     0.000 O
ATOM     65   O  BGC C   5      36.674  17.413  26.4250  0.00  0.00     0.000 O
ATOM     67  HD  BGC C   5      36.399  18.017  25.8680  0.00  0.00     0.000 HD
ATOM     67   O  BGC C   5      36.674  17.413  26.4250  0.00  0.00     0.000 O
ATOM     69  HD  BGC C   5      36.399  18.017  25.8680  0.00  0.00     0.000 HD
ENDBRANCH 58 62
ENDBRANCH 45 58
ENDBRANCH 44 48
ENDBRANCH 31 44
ENDBRANCH 30 34
ENDBRANCH 17 30
ENDBRANCH 16 20
ENDBRANCH 1 16
TORSDOF 8
ENDMDL
MODEL 97
REMARK VINA RESULT:      -0.2     43.947     48.712
ROOT
ATOM      1  C1  BGC C   1      49.014   7.315  34.3660  0.00  0.00     0.000 C
ATOM      2  C2  BGC C   1      49.052   7.050  35.8710  0.00  0.00     0.000 C
ATOM      3  C3  BGC C   1      48.350   5.734  36.1870  0.00  0.00     0.000 C
ATOM      4  C4  BGC C   1      46.972   5.651  35.5520  0.00  0.00     0.000 C
ATOM      5  C5  BGC C   1      47.036   6.089  34.0910  0.00  0.00     0.000 C
ATOM      6  O5  BGC C   1      47.723   7.283  33.8920  0.00  0.00     0.000 O
ATOM      7   O  BGC C   1      50.404   6.987  36.2550  0.00  0.00     0.000 O
ATOM      9  HD  BGC C   1      49.727   7.119  36.7780  0.00  0.00     0.000 HD
ATOM      9   O  BGC C   1      48.294   5.591  37.6120  0.00  0.00     0.000 O
ATOM     11  HD  BGC C   1      47.616   5.724  38.1350  0.00  0.00     0.000 HD
ATOM     11   O  BGC C   1      46.549   4.296  35.6620  0.00  0.00     0.000 O
ATOM     13  HD  BGC C   1      45.871   4.429  36.1850  0.00  0.00     0.000 HD
ATOM     13   O  BGC C   1      44.932   7.392  34.2080  0.00  0.00     0.000 O
ATOM     15  HD  BGC C   1      44.255   7.524  34.7310  0.00  0.00     0.000 HD
ATOM     15   C  BGC C   1      45.594   6.260  33.5780  0.00  0.00     0.000 C
ENDROOT
BRANCH 1 16
ATOM     16  O4  BGC C   2      49.509   8.611  34.1250  0.00  0.00     0.000 O
BRANCH 16 20
ATOM     17  C1  BGC C   2      51.573  10.569  31.1950  0.00  0.00     0.000 C
ATOM     18  C2  BGC C   2      50.075  10.432  30.9750  0.00  0.00     0.000 C
ATOM     19  C3  BGC C   2      49.374  10.027  32.2640  0.00  0.00     0.000 C
ATOM     20  C4  BGC C   2      50.045   8.826  32.8410  0.00  0.00     0.000 C
ATOM     21  C5  BGC C   2      51.552   9.039  32.9490  0.00  0.00     0.000 C
ATOM     22  O5  BGC C   2      52.097   9.379  31.7100  0.00  0.00     0.000 O
ATOM     23   O  BGC C   2      49.560  11.684  30.4960  0.00  0.00     0.000 O
ATOM     25  HD  BGC C   2      48.797  11.854  30.8690  0.00  0.00     0.000 HD
ATOM     25   O  BGC C   2      48.012   9.729  31.9820  0.00  0.00     0.000 O
ATOM     27  HD  BGC C   2      47.249   9.899  32.3550  0.00  0.00     0.000 HD
ATOM     27   C  BGC C   2      52.335   7.838  33.5190  0.00  0.00     0.000 C
ATOM     28   O  BGC C   2      52.059   6.638  32.7780  0.00  0.00     0.000 O
ATOM     30  HD  BGC C   2      51.296   6.807  33.1510  0.00  0.00     0.000 HD
BRANCH 17 30
ATOM     30  O4  BGC C   3      52.202  10.842  29.9620  0.00  0.00     0.000 O
BRANCH 30 34
ATOM     31  C1  BGC C   3      55.247  12.994  28.4010  0.00  0.00     0.000 C
ATOM     32  C2  BGC C   3      55.633  11.619  28.9960  0.00  0.00     0.000 C
ATOM     33  C3  BGC C   3      54.429  10.772  29.2200  0.00  0.00     0.000 C
ATOM     34  C4  BGC C   3      53.411  11.584  30.0240  0.00  0.00     0.000 C
ATOM     35  C5  BGC C   3      53.154  13.003  29.4550  0.00  0.00     0.000 C
ATOM     36  O5  BGC C   3      54.373  13.677  29.2660  0.00  0.00     0.000 O
ATOM     37   O  BGC C   3      56.561  10.818  28.2880  0.00  0.00     0.000 O
ATOM     39  HD  BGC C   3      55.840  10.831  28.7680  0.00  0.00     0.000 HD
ATOM     39   O  BGC C   3      54.797   9.548  29.9220  0.00  0.00     0.000 O
ATOM     41  HD  BGC C   3      54.077   9.561  30.4020  0.00  0.00     0.000 HD
ATOM     41   C  BGC C   3      52.273  13.915  30.3400  0.00  0.00     0.000 C
ATOM     42   O  BGC C   3      52.847  14.260  31.6510  0.00  0.00     0.000 O
ATOM     44  HD  BGC C   3      52.126  14.273  32.1310  0.00  0.00     0.000 HD
BRANCH 31 44
ATOM     44  O4  BGC C   4      56.372  13.780  28.1920  0.00  0.00     0.000 O
BRANCH 44 48
ATOM     45  C1  BGC C   4      58.140  16.481  25.6740  0.00  0.00     0.000 C
ATOM     46  C2  BGC C   4      56.931  17.116  26.4310  0.00  0.00     0.000 C
ATOM     47  C3  BGC C   4      56.639  16.061  27.5070  0.00  0.00     0.000 C
ATOM     48  C4  BGC C   4      56.470  14.617  27.0780  0.00  0.00     0.000 C
ATOM     49  C5  BGC C   4      57.770  14.231  26.3540  0.00  0.00     0.000 C
ATOM     50  O5  BGC C   4      58.032  15.097  25.3060  0.00  0.00     0.000 O
ATOM     51   O  BGC C   4      57.006  18.485  27.1320  0.00  0.00     0.000 O
ATOM     53  HD  BGC C   4      56.295  18.641  27.6010  0.00  0.00     0.000 HD
ATOM     53   O  BGC C   4      55.257  16.490  27.9170  0.00  0.00     0.000 O
ATOM     55  HD  BGC C   4      54.546  16.646  28.3860  0.00  0.00     0.000 HD
ATOM     55   C  BGC C   4      57.665  12.863  25.7310  0.00  0.00     0.000 C
ATOM     56   O  BGC C   4      56.575  12.678  24.8200  0.00  0.00     0.000 O
ATOM     58  HD  BGC C   4      55.865  12.834  25.2890  0.00  0.00     0.000 HD
BRANCH 45 58
ATOM     58  O4  BGC C   5      58.434  17.157  24.4880  0.00  0.00     0.000 O
BRANCH 58 62
ATOM     59  C1  BGC C   5      59.853  19.780  25.1630  0.00  0.00     0.000 C
ATOM     60  C2  BGC C   5      59.787  19.711  23.7200  0.00  0.00     0.000 C
ATOM     61  C3  BGC C   5      60.157  18.343  23.1540  0.00  0.00     0.000 C
ATOM     62  C4  BGC C   5      59.848  17.278  24.1970  0.00  0.00     0.000 C
ATOM     63  C5  BGC C   5      60.367  17.784  25.5220  0.00  0.00     0.000 C
ATOM     64  O5  BGC C   5      60.696  19.167  25.6370  0.00  0.00     0.000 O
ATOM     65   O  BGC C   5      62.656  17.111  25.1440  0.00  0.00     0.000 O
ATOM     67  HD  BGC C   5      61.886  16.905  25.4820  0.00  0.00     0.000 HD
ATOM     67   O  BGC C   5      62.656  17.111  25.1440  0.00  0.00     0.000 O
ATOM     69  HD  BGC C   5      61.886  16.905  25.4820  0.00  0.00     0.000 HD
ENDBRANCH 58 62
ENDBRANCH 45 58
ENDBRANCH 44 48
ENDBRANCH 31 44
ENDBRANCH 30 34
ENDBRANCH 17 30
ENDBRANCH 16 20
ENDBRANCH 1 16
TORSDOF 8
ENDMDL
MODEL 98
REMARK VINA RESULT:      -0.2     63.140     65.895
ROOT
ATOM      1  C1  BGC C   1      10.398  67.494  11.4860  0.00  0.00     0.000 C
ATOM      2  C2  BGC C   1       8.939  67.115  11.2340  0.00  0.00     0.000 C
ATOM      3  C3  BGC C   1       8.739  66.758   9.7660  0.00  0.00     0.000 C
ATOM      4  C4  BGC C   1       9.299  67.820   8.8340  0.00  0.00     0.000 C
ATOM      5  C5  BGC C   1      10.700  68.228   9.2810  0.00  0.00     0.000 C
ATOM      6  O5  BGC C   1      10.797  68.504  10.6420  0.00  0.00     0.000 O
ATOM      7   O  BGC C   1       8.643  66.007  12.0510  0.00  0.00     0.000 O
ATOM      9  HD  BGC C   1       8.070  66.541  11.6810  0.00  0.00     0.000 HD
ATOM      9   O  BGC C   1       7.339  66.537   9.5480  0.00  0.00     0.000 O
ATOM     11  HD  BGC C   1       6.766  67.071   9.1790  0.00  0.00     0.000 HD
ATOM     11   O  BGC C   1       9.323  67.251   7.5290  0.00  0.00     0.000 O
ATOM     13  HD  BGC C   1       8.750  67.785   7.1600  0.00  0.00     0.000 HD
ATOM     13   O  BGC C   1      10.312  70.643   8.8840  0.00  0.00     0.000 O
ATOM     15  HD  BGC C   1       9.739  71.177   8.5140  0.00  0.00     0.000 HD
ATOM     15   C  BGC C   1      11.105  69.488   8.4940  0.00  0.00     0.000 C
ENDROOT
BRANCH 1 16
ATOM     16  O4  BGC C   2      10.514  67.985  12.8010  0.00  0.00     0.000 O
BRANCH 16 20
ATOM     17  C1  BGC C   2      13.309  68.042  15.7770  0.00  0.00     0.000 C
ATOM     18  C2  BGC C   2      13.458  69.110  14.7050  0.00  0.00     0.000 C
ATOM     19  C3  BGC C   2      12.187  69.223  13.8760  0.00  0.00     0.000 C
ATOM     20  C4  BGC C   2      11.793  67.873  13.3780  0.00  0.00     0.000 C
ATOM     21  C5  BGC C   2      11.748  66.861  14.5190  0.00  0.00     0.000 C
ATOM     22  O5  BGC C   2      12.968  66.817  15.1950  0.00  0.00     0.000 O
ATOM     23   O  BGC C   2      13.757  70.363  15.3380  0.00  0.00     0.000 O
ATOM     25  HD  BGC C   2      13.324  71.004  14.9490  0.00  0.00     0.000 HD
ATOM     25   O  BGC C   2      12.423  70.093  12.7750  0.00  0.00     0.000 O
ATOM     27  HD  BGC C   2      11.989  70.733  12.3850  0.00  0.00     0.000 HD
ATOM     27   C  BGC C   2      11.367  65.427  14.0950  0.00  0.00     0.000 C
ATOM     28   O  BGC C   2      12.226  64.949  13.0460  0.00  0.00     0.000 O
ATOM     30  HD  BGC C   2      11.792  65.590  12.6560  0.00  0.00     0.000 HD
BRANCH 17 30
ATOM     30  O4  BGC C   3      14.537  67.891  16.4570  0.00  0.00     0.000 O
BRANCH 30 34
ATOM     31  C1  BGC C   3      16.008  67.168  20.1520  0.00  0.00     0.000 C
ATOM     32  C2  BGC C   3      15.601  65.918  19.3360  0.00  0.00     0.000 C
ATOM     33  C3  BGC C   3      15.408  66.253  17.8970  0.00  0.00     0.000 C
ATOM     34  C4  BGC C   3      14.458  67.450  17.8040  0.00  0.00     0.000 C
ATOM     35  C5  BGC C   3      14.842  68.628  18.7360  0.00  0.00     0.000 C
ATOM     36  O5  BGC C   3      15.021  68.165  20.0520  0.00  0.00     0.000 O
ATOM     37   O  BGC C   3      16.449  64.786  19.3740  0.00  0.00     0.000 O
ATOM     39  HD  BGC C   3      15.930  65.281  18.8880  0.00  0.00     0.000 HD
ATOM     39   O  BGC C   3      14.876  65.102  17.1790  0.00  0.00     0.000 O
ATOM     41  HD  BGC C   3      14.357  65.597  16.6930  0.00  0.00     0.000 HD
ATOM     41   C  BGC C   3      13.808  69.775  18.8040  0.00  0.00     0.000 C
ATOM     42   O  BGC C   3      12.501  69.408  19.3730  0.00  0.00     0.000 O
ATOM     44  HD  BGC C   3      11.982  69.903  18.8870  0.00  0.00     0.000 HD
BRANCH 31 44
ATOM     44  O4  BGC C   4      16.188  66.851  21.4920  0.00  0.00     0.000 O
BRANCH 44 48
ATOM     45  C1  BGC C   4      18.472  67.561  24.8150  0.00  0.00     0.000 C
ATOM     46  C2  BGC C   4      17.578  68.793  24.4650  0.00  0.00     0.000 C
ATOM     47  C3  BGC C   4      16.618  68.204  23.4230  0.00  0.00     0.000 C
ATOM     48  C4  BGC C   4      17.201  67.451  22.2440  0.00  0.00     0.000 C
ATOM     49  C5  BGC C   4      18.039  66.307  22.8390  0.00  0.00     0.000 C
ATOM     50  O5  BGC C   4      18.992  66.794  23.7180  0.00  0.00     0.000 O
ATOM     51   O  BGC C   4      16.729  69.536  25.5120  0.00  0.00     0.000 O
ATOM     53  HD  BGC C   4      16.205  70.117  25.1410  0.00  0.00     0.000 HD
ATOM     53   O  BGC C   4      16.082  69.475  22.8220  0.00  0.00     0.000 O
ATOM     55  HD  BGC C   4      15.558  70.056  22.4510  0.00  0.00     0.000 HD
ATOM     55   C  BGC C   4      18.810  65.577  21.7700  0.00  0.00     0.000 C
ATOM     56   O  BGC C   4      19.672  66.389  20.9640  0.00  0.00     0.000 O
ATOM     58  HD  BGC C   4      19.148  66.970  20.5930  0.00  0.00     0.000 HD
BRANCH 45 58
ATOM     58  O4  BGC C   5      19.587  67.917  25.5770  0.00  0.00     0.000 O
BRANCH 58 62
ATOM     59  C1  BGC C   5      18.694  68.459  28.4520  0.00  0.00     0.000 C
ATOM     60  C2  BGC C   5      20.130  68.636  28.4290  0.00  0.00     0.000 C
ATOM     61  C3  BGC C   5      20.870  67.541  27.6660  0.00  0.00     0.000 C
ATOM     62  C4  BGC C   5      19.942  66.963  26.6080  0.00  0.00     0.000 C
ATOM     63  C5  BGC C   5      18.599  66.740  27.2620  0.00  0.00     0.000 C
ATOM     64  O5  BGC C   5      18.344  67.370  28.5160  0.00  0.00     0.000 O
ATOM     65   O  BGC C   5      19.183  64.623  28.2690  0.00  0.00     0.000 O
ATOM     67  HD  BGC C   5      18.828  65.031  27.5930  0.00  0.00     0.000 HD
ATOM     67   O  BGC C   5      19.183  64.623  28.2690  0.00  0.00     0.000 O
ATOM     69  HD  BGC C   5      18.828  65.031  27.5930  0.00  0.00     0.000 HD
ENDBRANCH 58 62
ENDBRANCH 45 58
ENDBRANCH 44 48
ENDBRANCH 31 44
ENDBRANCH 30 34
ENDBRANCH 17 30
ENDBRANCH 16 20
ENDBRANCH 1 16
TORSDOF 8
ENDMDL
MODEL 99
REMARK VINA RESULT:      -0.2     58.070     60.999
ROOT
ATOM      1  C1  BGC C   1      65.988  17.767  31.0380  0.00  0.00     0.000 C
ATOM      2  C2  BGC C   1      66.337  17.392  32.4780  0.00  0.00     0.000 C
ATOM      3  C3  BGC C   1      67.051  16.046  32.5090  0.00  0.00     0.000 C
ATOM      4  C4  BGC C   1      66.300  14.979  31.7300  0.00  0.00     0.000 C
ATOM      5  C5  BGC C   1      65.870  15.523  30.3700  0.00  0.00     0.000 C
ATOM      6  O5  BGC C   1      65.256  16.771  30.4330  0.00  0.00     0.000 O
ATOM      7   O  BGC C   1      67.175  18.403  32.9860  0.00  0.00     0.000 O
ATOM      9  HD  BGC C   1      66.723  17.827  33.4500  0.00  0.00     0.000 HD
ATOM      9   O  BGC C   1      67.240  15.675  33.8820  0.00  0.00     0.000 O
ATOM     11  HD  BGC C   1      66.788  15.100  34.3460  0.00  0.00     0.000 HD
ATOM     11   O  BGC C   1      67.188  13.876  31.5830  0.00  0.00     0.000 O
ATOM     13  HD  BGC C   1      66.737  13.301  32.0470  0.00  0.00     0.000 HD
ATOM     13   O  BGC C   1      63.624  14.483  30.4700  0.00  0.00     0.000 O
ATOM     15  HD  BGC C   1      63.172  13.908  30.9350  0.00  0.00     0.000 HD
ATOM     15   C  BGC C   1      64.883  14.521  29.7440  0.00  0.00     0.000 C
ENDROOT
BRANCH 1 16
ATOM     16  O4  BGC C   2      65.180  18.919  31.0550  0.00  0.00     0.000 O
BRANCH 16 20
ATOM     17  C1  BGC C   2      64.511  22.186  28.6980  0.00  0.00     0.000 C
ATOM     18  C2  BGC C   2      63.768  20.919  28.3050  0.00  0.00     0.000 C
ATOM     19  C3  BGC C   2      63.802  19.900  29.4350  0.00  0.00     0.000 C
ATOM     20  C4  BGC C   2      65.210  19.699  29.8830  0.00  0.00     0.000 C
ATOM     21  C5  BGC C   2      65.888  21.033  30.1790  0.00  0.00     0.000 C
ATOM     22  O5  BGC C   2      65.824  21.881  29.0720  0.00  0.00     0.000 O
ATOM     23   O  BGC C   2      62.412  21.260  27.9770  0.00  0.00     0.000 O
ATOM     25  HD  BGC C   2      61.871  20.661  28.2900  0.00  0.00     0.000 HD
ATOM     25   O  BGC C   2      63.263  18.669  28.9700  0.00  0.00     0.000 O
ATOM     27  HD  BGC C   2      62.722  18.069  29.2830  0.00  0.00     0.000 HD
ATOM     27   C  BGC C   2      67.359  20.925  30.6320  0.00  0.00     0.000 C
ATOM     28   O  BGC C   2      68.140  20.175  29.6890  0.00  0.00     0.000 O
ATOM     30  HD  BGC C   2      67.599  19.576  30.0020  0.00  0.00     0.000 HD
BRANCH 17 30
ATOM     30  O4  BGC C   3      64.550  23.065  27.5940  0.00  0.00     0.000 O
BRANCH 30 34
ATOM     31  C1  BGC C   3      64.371  27.006  26.7150  0.00  0.00     0.000 C
ATOM     32  C2  BGC C   3      65.765  26.473  27.1230  0.00  0.00     0.000 C
ATOM     33  C3  BGC C   3      65.804  24.985  27.0860  0.00  0.00     0.000 C
ATOM     34  C4  BGC C   3      64.621  24.450  27.8970  0.00  0.00     0.000 C
ATOM     35  C5  BGC C   3      63.265  25.109  27.5330  0.00  0.00     0.000 C
ATOM     36  O5  BGC C   3      63.380  26.509  27.5800  0.00  0.00     0.000 O
ATOM     37   O  BGC C   3      66.895  26.922  26.4000  0.00  0.00     0.000 O
ATOM     39  HD  BGC C   3      66.514  26.254  26.7980  0.00  0.00     0.000 HD
ATOM     39   O  BGC C   3      67.070  24.500  27.6230  0.00  0.00     0.000 O
ATOM     41  HD  BGC C   3      66.690  23.832  28.0210  0.00  0.00     0.000 HD
ATOM     41   C  BGC C   3      62.083  24.728  28.4540  0.00  0.00     0.000 C
ATOM     42   O  BGC C   3      62.215  25.159  29.8550  0.00  0.00     0.000 O
ATOM     44  HD  BGC C   3      61.834  24.491  30.2540  0.00  0.00     0.000 HD
BRANCH 31 44
ATOM     44  O4  BGC C   4      64.339  28.394  26.7490  0.00  0.00     0.000 O
BRANCH 44 48
ATOM     45  C1  BGC C   4      62.922  31.751  24.8820  0.00  0.00     0.000 C
ATOM     46  C2  BGC C   4      61.774  30.971  25.5990  0.00  0.00     0.000 C
ATOM     47  C3  BGC C   4      62.558  29.972  26.4600  0.00  0.00     0.000 C
ATOM     48  C4  BGC C   4      63.623  29.122  25.7950  0.00  0.00     0.000 C
ATOM     49  C5  BGC C   4      64.619  30.105  25.1590  0.00  0.00     0.000 C
ATOM     50  O5  BGC C   4      63.975  30.973  24.2920  0.00  0.00     0.000 O
ATOM     51   O  BGC C   4      60.738  31.655  26.5090  0.00  0.00     0.000 O
ATOM     53  HD  BGC C   4      60.244  31.075  26.9200  0.00  0.00     0.000 HD
ATOM     53   O  BGC C   4      61.459  28.998  26.7860  0.00  0.00     0.000 O
ATOM     55  HD  BGC C   4      60.965  28.417  27.1980  0.00  0.00     0.000 HD
ATOM     55   C  BGC C   4      65.644  29.384  24.3220  0.00  0.00     0.000 C
ATOM     56   O  BGC C   4      65.119  28.547  23.2860  0.00  0.00     0.000 O
ATOM     58  HD  BGC C   4      64.626  27.966  23.6970  0.00  0.00     0.000 HD
BRANCH 45 58
ATOM     58  O4  BGC C   5      62.444  32.564  23.8520  0.00  0.00     0.000 O
BRANCH 58 62
ATOM     59  C1  BGC C   5      61.125  35.040  25.0720  0.00  0.00     0.000 C
ATOM     60  C2  BGC C   5      61.042  35.198  23.6360  0.00  0.00     0.000 C
ATOM     61  C3  BGC C   5      62.338  34.855  22.9060  0.00  0.00     0.000 C
ATOM     62  C4  BGC C   5      63.117  33.842  23.7320  0.00  0.00     0.000 C
ATOM     63  C5  BGC C   5      63.086  34.314  25.1670  0.00  0.00     0.000 C
ATOM     64  O5  BGC C   5      62.138  35.317  25.5290  0.00  0.00     0.000 O
ATOM     65   O  BGC C   5      64.898  35.893  24.9280  0.00  0.00     0.000 O
ATOM     67  HD  BGC C   5      64.660  35.090  25.1480  0.00  0.00     0.000 HD
ATOM     67   O  BGC C   5      64.898  35.893  24.9280  0.00  0.00     0.000 O
ATOM     69  HD  BGC C   5      64.660  35.090  25.1480  0.00  0.00     0.000 HD
ENDBRANCH 58 62
ENDBRANCH 45 58
ENDBRANCH 44 48
ENDBRANCH 31 44
ENDBRANCH 30 34
ENDBRANCH 17 30
ENDBRANCH 16 20
ENDBRANCH 1 16
TORSDOF 8
ENDMDL
MODEL 100
REMARK VINA RESULT:       1.0     12.978     18.877
ROOT
ATOM      1  C1  BGC C   1      11.922   9.594   2.1770  0.00  0.00     0.000 C
ATOM      2  C2  BGC C   1      13.276   9.193   2.7600  0.00  0.00     0.000 C
ATOM      3  C3  BGC C   1      14.007   8.268   1.7950  0.00  0.00     0.000 C
ATOM      4  C4  BGC C   1      13.135   7.111   1.3350  0.00  0.00     0.000 C
ATOM      5  C5  BGC C   1      11.756   7.620   0.9250  0.00  0.00     0.000 C
ATOM      6  O5  BGC C   1      11.178   8.484   1.8500  0.00  0.00     0.000 O
ATOM      7   O  BGC C   1      14.016  10.374   2.9610  0.00  0.00     0.000 O
ATOM      9  HD  BGC C   1      14.166   9.604   3.3290  0.00  0.00     0.000 HD
ATOM      9   O  BGC C   1      15.207   7.815   2.4350  0.00  0.00     0.000 O
ATOM     11  HD  BGC C   1      15.357   7.045   2.8030  0.00  0.00     0.000 HD
ATOM     11   O  BGC C   1      13.805   6.502   0.2370  0.00  0.00     0.000 O
ATOM     13  HD  BGC C   1      13.955   5.733   0.6040  0.00  0.00     0.000 HD
ATOM     13   O  BGC C   1      10.550   5.749   2.0120  0.00  0.00     0.000 O
ATOM     15  HD  BGC C   1      10.700   4.979   2.3800  0.00  0.00     0.000 HD
ATOM     15   C  BGC C   1      10.831   6.403   0.7440  0.00  0.00     0.000 C
ENDROOT
BRANCH 1 16
ATOM     16  O4  BGC C   2      11.200  10.300   3.1590  0.00  0.00     0.000 O
BRANCH 16 20
ATOM     17  C1  BGC C   2       8.531  13.387   3.3140  0.00  0.00     0.000 C
ATOM     18  C2  BGC C   2       7.944  12.014   3.0240  0.00  0.00     0.000 C
ATOM     19  C3  BGC C   2       8.948  10.918   3.3480  0.00  0.00     0.000 C
ATOM     20  C4  BGC C   2      10.245  11.211   2.6710  0.00  0.00     0.000 C
ATOM     21  C5  BGC C   2      10.706  12.636   2.9640  0.00  0.00     0.000 C
ATOM     22  O5  BGC C   2       9.725  13.562   2.6060  0.00  0.00     0.000 O
ATOM     23   O  BGC C   2       6.749  11.847   3.8020  0.00  0.00     0.000 O
ATOM     25  HD  BGC C   2       6.710  11.041   4.1170  0.00  0.00     0.000 HD
ATOM     25   O  BGC C   2       8.440   9.669   2.8950  0.00  0.00     0.000 O
ATOM     27  HD  BGC C   2       8.401   8.863   3.2090  0.00  0.00     0.000 HD
ATOM     27   C  BGC C   2      12.033  13.037   2.2880  0.00  0.00     0.000 C
ATOM     28   O  BGC C   2      11.980  12.820   0.8680  0.00  0.00     0.000 O
ATOM     30  HD  BGC C   2      11.941  12.014   1.1830  0.00  0.00     0.000 HD
BRANCH 17 30
ATOM     30  O4  BGC C   3       7.616  14.380   2.9050  0.00  0.00     0.000 O
BRANCH 30 34
ATOM     31  C1  BGC C   3       6.294  18.054   3.9490  0.00  0.00     0.000 C
ATOM     32  C2  BGC C   3       7.602  18.022   3.1230  0.00  0.00     0.000 C
ATOM     33  C3  BGC C   3       7.813  16.685   2.5010  0.00  0.00     0.000 C
ATOM     34  C4  BGC C   3       7.687  15.620   3.5930  0.00  0.00     0.000 C
ATOM     35  C5  BGC C   3       6.419  15.774   4.4730  0.00  0.00     0.000 C
ATOM     36  O5  BGC C   3       6.331  17.086   4.9680  0.00  0.00     0.000 O
ATOM     37   O  BGC C   3       7.768  18.976   2.0910  0.00  0.00     0.000 O
ATOM     39  HD  BGC C   3       7.898  18.158   2.3430  0.00  0.00     0.000 HD
ATOM     39   O  BGC C   3       9.122  16.629   1.8610  0.00  0.00     0.000 O
ATOM     41  HD  BGC C   3       9.252  15.811   2.1130  0.00  0.00     0.000 HD
ATOM     41   C  BGC C   3       6.351  14.830   5.6950  0.00  0.00     0.000 C
ATOM     42   O  BGC C   3       7.399  15.040   6.7090  0.00  0.00     0.000 O
ATOM     44  HD  BGC C   3       7.529  14.222   6.9610  0.00  0.00     0.000 HD
BRANCH 31 44
ATOM     44  O4  BGC C   4       6.100  19.303   4.5260  0.00  0.00     0.000 O
BRANCH 44 48
ATOM     45  C1  BGC C   4       3.318  22.161   5.4510  0.00  0.00     0.000 C
ATOM     46  C2  BGC C   4       3.130  20.879   6.3240  0.00  0.00     0.000 C
ATOM     47  C3  BGC C   4       4.424  20.107   6.0400  0.00  0.00     0.000 C
ATOM     48  C4  BGC C   4       4.827  19.874   4.5970  0.00  0.00     0.000 C
ATOM     49  C5  BGC C   4       4.936  21.266   3.9530  0.00  0.00     0.000 C
ATOM     50  O5  BGC C   4       3.754  21.974   4.0960  0.00  0.00     0.000 O
ATOM     51   O  BGC C   4       2.943  20.926   7.8520  0.00  0.00     0.000 O
ATOM     53  HD  BGC C   4       2.969  20.133   8.1990  0.00  0.00     0.000 HD
ATOM     53   O  BGC C   4       4.024  18.745   6.5370  0.00  0.00     0.000 O
ATOM     55  HD  BGC C   4       4.051  17.952   6.8840  0.00  0.00     0.000 HD
ATOM     55   C  BGC C   4       5.171  21.167   2.4680  0.00  0.00     0.000 C
ATOM     56   O  BGC C   4       4.200  20.412   1.7360  0.00  0.00     0.000 O
ATOM     58  HD  BGC C   4       4.226  19.619   2.0830  0.00  0.00     0.000 HD
BRANCH 45 58
ATOM     58  O4  BGC C   5       2.146  22.914   5.3610  0.00  0.00     0.000 O
BRANCH 58 62
ATOM     59  C1  BGC C   5       0.738  25.523   6.1140  0.00  0.00     0.000 C
ATOM     60  C2  BGC C   5      -0.013  24.955   5.0150  0.00  0.00     0.000 C
ATOM     61  C3  BGC C   5       0.864  24.435   3.8780  0.00  0.00     0.000 C
ATOM     62  C4  BGC C   5       2.218  24.034   4.4440  0.00  0.00     0.000 C
ATOM     63  C5  BGC C   5       2.659  25.137   5.3790  0.00  0.00     0.000 C
ATOM     64  O5  BGC C   5       1.686  26.087   5.8090  0.00  0.00     0.000 O
ATOM     65   O  BGC C   5       3.525  26.576   3.6430  0.00  0.00     0.000 O
ATOM     67  HD  BGC C   5       3.697  25.961   4.2280  0.00  0.00     0.000 HD
ATOM     67   O  BGC C   5       3.525  26.576   3.6430  0.00  0.00     0.000 O
ATOM     69  HD  BGC C   5       3.697  25.961   4.2280  0.00  0.00     0.000 HD
ENDBRANCH 58 62
ENDBRANCH 45 58
ENDBRANCH 44 48
ENDBRANCH 31 44
ENDBRANCH 30 34
ENDBRANCH 17 30
ENDBRANCH 16 20
ENDBRANCH 1 16
TORSDOF 8
ENDMDL
