MODEL 1
REMARK VINA RESULT:      -4.6      0.000      0.000
ROOT
ATOM      1  C1  BGC B   1       3.940   2.556   4.3570  0.00  0.00     0.000 C
ATOM      2  C2  BGC B   1       3.087   2.231   3.1320  0.00  0.00     0.000 C
ATOM      3  C3  BGC B   1       1.615   2.355   3.4750  0.00  0.00     0.000 C
ATOM      4  C4  BGC B   1       1.280   1.539   4.7170  0.00  0.00     0.000 C
ATOM      5  C5  BGC B   1       2.196   1.985   5.8480  0.00  0.00     0.000 C
ATOM      6  O5  BGC B   1       3.549   1.718   5.4350  0.00  0.00     0.000 O
ATOM      7   O  BGC B   1       3.406   3.152   2.0750  0.00  0.00     0.000 O
ATOM      9  HD  BGC B   1       2.788   3.327   1.4940  0.00  0.00     0.000 HD
ATOM      9   O  BGC B   1       0.841   1.918   2.3540  0.00  0.00     0.000 O
ATOM     11  HD  BGC B   1       0.223   2.093   1.7720  0.00  0.00     0.000 HD
ATOM     11   O  BGC B   1      -0.067   1.754   5.0760  0.00  0.00     0.000 O
ATOM     13  HD  BGC B   1      -0.684   1.929   4.4950  0.00  0.00     0.000 HD
ATOM     13   C  BGC B   1       1.951   1.291   7.1800  0.00  0.00     0.000 C
ATOM     14   O  BGC B   1       2.020  -0.127   7.0740  0.00  0.00     0.000 O
ATOM     16  HD  BGC B   1       1.403   0.047   6.4920  0.00  0.00     0.000 HD
ENDROOT
BRANCH 1 16
ATOM     16  O4  BGC B   2       5.270   2.151   4.0340  0.00  0.00     0.000 O
BRANCH 16 20
ATOM     17  C1  BGC B   2       9.139   3.194   4.7270  0.00  0.00     0.000 C
ATOM     18  C2  BGC B   2       8.528   2.343   5.8310  0.00  0.00     0.000 C
ATOM     19  C3  BGC B   2       7.237   1.720   5.3050  0.00  0.00     0.000 C
ATOM     20  C4  BGC B   2       6.315   2.792   4.7610  0.00  0.00     0.000 C
ATOM     21  C5  BGC B   2       7.028   3.741   3.7970  0.00  0.00     0.000 C
ATOM     22  O5  BGC B   2       8.202   4.250   4.4430  0.00  0.00     0.000 O
ATOM     23   O  BGC B   2       9.436   1.295   6.2070  0.00  0.00     0.000 O
ATOM     25  HD  BGC B   2       8.719   1.318   5.7220  0.00  0.00     0.000 HD
ATOM     25   O  BGC B   2       6.590   0.995   6.3440  0.00  0.00     0.000 O
ATOM     27  HD  BGC B   2       5.873   1.017   5.8590  0.00  0.00     0.000 HD
ATOM     27   C  BGC B   2       6.169   4.932   3.3900  0.00  0.00     0.000 C
ATOM     28   O  BGC B   2       5.696   5.687   4.4940  0.00  0.00     0.000 O
ATOM     30  HD  BGC B   2       4.979   5.709   4.0090  0.00  0.00     0.000 HD
BRANCH 17 30
ATOM     30  O4  BGC B   3      10.266   3.841   5.2860  0.00  0.00     0.000 O
BRANCH 30 34
ATOM     31  C1  BGC B   3      14.059   5.037   4.2330  0.00  0.00     0.000 C
ATOM     32  C2  BGC B   3      12.951   5.568   3.3240  0.00  0.00     0.000 C
ATOM     33  C3  BGC B   3      11.616   5.401   4.0280  0.00  0.00     0.000 C
ATOM     34  C4  BGC B   3      11.412   3.942   4.4340  0.00  0.00     0.000 C
ATOM     35  C5  BGC B   3      12.614   3.436   5.2120  0.00  0.00     0.000 C
ATOM     36  O5  BGC B   3      13.803   3.658   4.4470  0.00  0.00     0.000 O
ATOM     37   O  BGC B   3      13.162   6.957   3.0790  0.00  0.00     0.000 O
ATOM     39  HD  BGC B   3      12.533   6.930   2.4840  0.00  0.00     0.000 HD
ATOM     39   O  BGC B   3      10.587   5.825   3.1470  0.00  0.00     0.000 O
ATOM     41  HD  BGC B   3       9.959   5.798   2.5510  0.00  0.00     0.000 HD
ATOM     41   C  BGC B   3      12.537   1.959   5.5800  0.00  0.00     0.000 C
ATOM     42   O  BGC B   3      12.394   1.176   4.4190  0.00  0.00     0.000 O
ATOM     44  HD  BGC B   3      11.766   1.149   3.8230  0.00  0.00     0.000 HD
BRANCH 31 44
ATOM     44  O4  BGC B   4      15.261   5.113   3.5110  0.00  0.00     0.000 O
BRANCH 44 48
ATOM     45  C1  BGC B   4      19.287   5.650   4.0670  0.00  0.00     0.000 C
ATOM     46  C2  BGC B   4      18.706   4.424   4.7560  0.00  0.00     0.000 C
ATOM     47  C3  BGC B   4      17.349   4.115   4.1730  0.00  0.00     0.000 C
ATOM     48  C4  BGC B   4      16.446   5.350   4.2440  0.00  0.00     0.000 C
ATOM     49  C5  BGC B   4      17.144   6.565   3.6200  0.00  0.00     0.000 C
ATOM     50  O5  BGC B   4      18.417   6.769   4.2500  0.00  0.00     0.000 O
ATOM     51   O  BGC B   4      19.572   3.290   4.5580  0.00  0.00     0.000 O
ATOM     53  HD  BGC B   4      18.960   3.099   3.9760  0.00  0.00     0.000 HD
ATOM     53   O  BGC B   4      16.760   3.040   4.9190  0.00  0.00     0.000 O
ATOM     55  HD  BGC B   4      16.148   2.848   4.3370  0.00  0.00     0.000 HD
ATOM     55   C  BGC B   4      16.372   7.866   3.7480  0.00  0.00     0.000 C
ATOM     56   O  BGC B   4      16.092   8.072   5.1340  0.00  0.00     0.000 O
ATOM     58  HD  BGC B   4      15.480   7.880   4.5510  0.00  0.00     0.000 HD
BRANCH 45 58
ATOM     58  O4  BGC B   5      20.429   6.027   4.8350  0.00  0.00     0.000 O
BRANCH 58 62
ATOM     59  C1  BGC B   5      24.204   7.683   4.4390  0.00  0.00     0.000 C
ATOM     60  C2  BGC B   5      23.052   8.667   4.3760  0.00  0.00     0.000 C
ATOM     61  C3  BGC B   5      21.788   8.043   4.9360  0.00  0.00     0.000 C
ATOM     62  C4  BGC B   5      21.502   6.737   4.2120  0.00  0.00     0.000 C
ATOM     63  C5  BGC B   5      22.732   5.820   4.2450  0.00  0.00     0.000 C
ATOM     64  O5  BGC B   5      23.842   6.519   3.6900  0.00  0.00     0.000 O
ATOM     65   O  BGC B   5      22.230   4.957   2.1230  0.00  0.00     0.000 O
ATOM     67  HD  BGC B   5      21.570   4.862   1.5710  0.00  0.00     0.000 HD
ATOM     67   O  BGC B   5      22.230   4.957   2.1230  0.00  0.00     0.000 O
ATOM     69  HD  BGC B   5      21.570   4.862   1.5710  0.00  0.00     0.000 HD
ENDBRANCH 58 62
ENDBRANCH 45 58
ENDBRANCH 44 48
ENDBRANCH 31 44
ENDBRANCH 30 34
ENDBRANCH 17 30
ENDBRANCH 16 20
ENDBRANCH 1 16
TORSDOF 8
ENDMDL
MODEL 2
REMARK VINA RESULT:      -4.6      2.878     14.840
ROOT
ATOM      1  C1  BGC B   1      18.349  10.924   5.3760  0.00  0.00     0.000 C
ATOM      2  C2  BGC B   1      18.946  11.278   6.7370  0.00  0.00     0.000 C
ATOM      3  C3  BGC B   1      19.957  12.398   6.5870  0.00  0.00     0.000 C
ATOM      4  C4  BGC B   1      20.982  12.060   5.5110  0.00  0.00     0.000 C
ATOM      5  C5  BGC B   1      20.240  11.748   4.2200  0.00  0.00     0.000 C
ATOM      6  O5  BGC B   1      19.398  10.608   4.4710  0.00  0.00     0.000 O
ATOM      7   O  BGC B   1      17.895  11.704   7.6190  0.00  0.00     0.000 O
ATOM      9  HD  BGC B   1      18.101  12.255   8.2540  0.00  0.00     0.000 HD
ATOM      9   O  BGC B   1      20.595  12.617   7.8480  0.00  0.00     0.000 O
ATOM     11  HD  BGC B   1      20.802  13.168   8.4830  0.00  0.00     0.000 HD
ATOM     11   O  BGC B   1      21.845  13.159   5.3170  0.00  0.00     0.000 O
ATOM     13  HD  BGC B   1      22.051  13.710   5.9520  0.00  0.00     0.000 HD
ATOM     13   C  BGC B   1      21.134  11.436   3.0280  0.00  0.00     0.000 C
ATOM     14   O  BGC B   1      22.042  10.372   3.2970  0.00  0.00     0.000 O
ATOM     16  HD  BGC B   1      22.248  10.923   3.9320  0.00  0.00     0.000 HD
ENDROOT
BRANCH 1 16
ATOM     16  O4  BGC B   2      17.635   9.703   5.5590  0.00  0.00     0.000 O
BRANCH 16 20
ATOM     17  C1  BGC B   2      14.392   7.699   4.1440  0.00  0.00     0.000 C
ATOM     18  C2  BGC B   2      15.637   7.529   3.2870  0.00  0.00     0.000 C
ATOM     19  C3  BGC B   2      16.847   8.004   4.0890  0.00  0.00     0.000 C
ATOM     20  C4  BGC B   2      16.626   9.415   4.5950  0.00  0.00     0.000 C
ATOM     21  C5  BGC B   2      15.272   9.581   5.2860  0.00  0.00     0.000 C
ATOM     22  O5  BGC B   2      14.248   9.108   4.4020  0.00  0.00     0.000 O
ATOM     23   O  BGC B   2      15.815   6.145   2.9420  0.00  0.00     0.000 O
ATOM     25  HD  BGC B   2      16.191   6.670   3.5200  0.00  0.00     0.000 HD
ATOM     25   O  BGC B   2      18.016   7.948   3.2810  0.00  0.00     0.000 O
ATOM     27  HD  BGC B   2      18.392   8.473   3.8580  0.00  0.00     0.000 HD
ATOM     27   C  BGC B   2      14.954  11.030   5.6310  0.00  0.00     0.000 C
ATOM     28   O  BGC B   2      14.993  11.897   4.5090  0.00  0.00     0.000 O
ATOM     30  HD  BGC B   2      15.369  12.421   5.0870  0.00  0.00     0.000 HD
BRANCH 17 30
ATOM     30  O4  BGC B   3      13.285   7.357   3.3310  0.00  0.00     0.000 O
BRANCH 30 34
ATOM     31  C1  BGC B   3       9.396   6.068   3.6970  0.00  0.00     0.000 C
ATOM     32  C2  BGC B   3       9.615   7.536   4.0620  0.00  0.00     0.000 C
ATOM     33  C3  BGC B   3      10.959   7.983   3.5160  0.00  0.00     0.000 C
ATOM     34  C4  BGC B   3      12.069   7.065   4.0260  0.00  0.00     0.000 C
ATOM     35  C5  BGC B   3      11.719   5.612   3.7570  0.00  0.00     0.000 C
ATOM     36  O5  BGC B   3      10.432   5.321   4.3140  0.00  0.00     0.000 O
ATOM     37   O  BGC B   3       8.596   8.333   3.4630  0.00  0.00     0.000 O
ATOM     39  HD  BGC B   3       8.875   9.009   3.9260  0.00  0.00     0.000 HD
ATOM     39   O  BGC B   3      11.189   9.322   3.9260  0.00  0.00     0.000 O
ATOM     41  HD  BGC B   3      11.468   9.999   4.3890  0.00  0.00     0.000 HD
ATOM     41   C  BGC B   3      12.730   4.617   4.3160  0.00  0.00     0.000 C
ATOM     42   O  BGC B   3      12.867   4.794   5.7060  0.00  0.00     0.000 O
ATOM     44  HD  BGC B   3      13.147   5.470   6.1700  0.00  0.00     0.000 HD
BRANCH 31 44
ATOM     44  O4  BGC B   4       8.196   5.664   4.3050  0.00  0.00     0.000 O
BRANCH 44 48
ATOM     45  C1  BGC B   4       5.051   3.111   3.6740  0.00  0.00     0.000 C
ATOM     46  C2  BGC B   4       6.288   2.462   4.2760  0.00  0.00     0.000 C
ATOM     47  C3  BGC B   4       7.204   3.531   4.8190  0.00  0.00     0.000 C
ATOM     48  C4  BGC B   4       7.516   4.565   3.7320  0.00  0.00     0.000 C
ATOM     49  C5  BGC B   4       6.220   5.096   3.1060  0.00  0.00     0.000 C
ATOM     50  O5  BGC B   4       5.432   3.999   2.6210  0.00  0.00     0.000 O
ATOM     51   O  BGC B   4       5.909   1.579   5.3500  0.00  0.00     0.000 O
ATOM     53  HD  BGC B   4       6.188   2.252   5.8180  0.00  0.00     0.000 HD
ATOM     53   O  BGC B   4       8.421   2.915   5.2630  0.00  0.00     0.000 O
ATOM     55  HD  BGC B   4       8.700   3.588   5.7320  0.00  0.00     0.000 HD
ATOM     55   C  BGC B   4       6.429   6.042   1.9370  0.00  0.00     0.000 C
ATOM     56   O  BGC B   4       7.245   5.372   0.9750  0.00  0.00     0.000 O
ATOM     58  HD  BGC B   4       7.524   6.045   1.4430  0.00  0.00     0.000 HD
BRANCH 45 58
ATOM     58  O4  BGC B   5       4.372   2.075   2.9640  0.00  0.00     0.000 O
BRANCH 58 62
ATOM     59  C1  BGC B   5       0.549   1.107   1.7010  0.00  0.00     0.000 C
ATOM     60  C2  BGC B   5       0.828   2.589   1.8510  0.00  0.00     0.000 C
ATOM     61  C3  BGC B   5       2.322   2.847   1.9040  0.00  0.00     0.000 C
ATOM     62  C4  BGC B   5       2.944   2.005   3.0050  0.00  0.00     0.000 C
ATOM     63  C5  BGC B   5       2.559   0.527   2.8410  0.00  0.00     0.000 C
ATOM     64  O5  BGC B   5       1.139   0.423   2.8100  0.00  0.00     0.000 O
ATOM     65   O  BGC B   5       2.522   0.207   5.1630  0.00  0.00     0.000 O
ATOM     67  HD  BGC B   5       2.829   0.548   5.8980  0.00  0.00     0.000 HD
ATOM     67   O  BGC B   5       2.522   0.207   5.1630  0.00  0.00     0.000 O
ATOM     69  HD  BGC B   5       2.829   0.548   5.8980  0.00  0.00     0.000 HD
ENDBRANCH 58 62
ENDBRANCH 45 58
ENDBRANCH 44 48
ENDBRANCH 31 44
ENDBRANCH 30 34
ENDBRANCH 17 30
ENDBRANCH 16 20
ENDBRANCH 1 16
TORSDOF 8
ENDMDL
MODEL 3
REMARK VINA RESULT:      -4.2      2.017     14.722
ROOT
ATOM      1  C1  BGC B   1      20.406   7.321   6.2330  0.00  0.00     0.000 C
ATOM      2  C2  BGC B   1      20.953   7.426   7.6550  0.00  0.00     0.000 C
ATOM      3  C3  BGC B   1      22.369   7.968   7.6290  0.00  0.00     0.000 C
ATOM      4  C4  BGC B   1      23.238   7.161   6.6720  0.00  0.00     0.000 C
ATOM      5  C5  BGC B   1      22.574   7.161   5.3030  0.00  0.00     0.000 C
ATOM      6  O5  BGC B   1      21.288   6.530   5.4490  0.00  0.00     0.000 O
ATOM      7   O  BGC B   1      20.120   8.315   8.4180  0.00  0.00     0.000 O
ATOM      9  HD  BGC B   1      20.485   8.742   9.0780  0.00  0.00     0.000 HD
ATOM      9   O  BGC B   1      22.903   7.930   8.9560  0.00  0.00     0.000 O
ATOM     11  HD  BGC B   1      23.268   8.357   9.6150  0.00  0.00     0.000 HD
ATOM     11   O  BGC B   1      24.518   7.748   6.5860  0.00  0.00     0.000 O
ATOM     13  HD  BGC B   1      24.883   8.174   7.2450  0.00  0.00     0.000 HD
ATOM     13   C  BGC B   1      23.350   6.431   4.2160  0.00  0.00     0.000 C
ATOM     14   O  BGC B   1      23.650   5.085   4.5750  0.00  0.00     0.000 O
ATOM     16  HD  BGC B   1      24.014   5.512   5.2340  0.00  0.00     0.000 HD
ENDROOT
BRANCH 1 16
ATOM     16  O4  BGC B   2      19.204   6.557   6.3240  0.00  0.00     0.000 O
BRANCH 16 20
ATOM     17  C1  BGC B   2      15.487   6.242   4.7060  0.00  0.00     0.000 C
ATOM     18  C2  BGC B   2      16.607   6.201   3.6770  0.00  0.00     0.000 C
ATOM     19  C3  BGC B   2      17.926   5.959   4.4060  0.00  0.00     0.000 C
ATOM     20  C4  BGC B   2      18.123   6.988   5.5020  0.00  0.00     0.000 C
ATOM     21  C5  BGC B   2      16.892   7.127   6.3980  0.00  0.00     0.000 C
ATOM     22  O5  BGC B   2      15.748   7.365   5.5680  0.00  0.00     0.000 O
ATOM     23   O  BGC B   2      16.382   5.132   2.7440  0.00  0.00     0.000 O
ATOM     25  HD  BGC B   2      16.907   5.228   3.4260  0.00  0.00     0.000 HD
ATOM     25   O  BGC B   2      19.007   6.011   3.4820  0.00  0.00     0.000 O
ATOM     27  HD  BGC B   2      19.532   6.108   4.1640  0.00  0.00     0.000 HD
ATOM     27   C  BGC B   2      17.002   8.285   7.3820  0.00  0.00     0.000 C
ATOM     28   O  BGC B   2      17.243   9.534   6.7550  0.00  0.00     0.000 O
ATOM     30  HD  BGC B   2      17.768   9.631   7.4370  0.00  0.00     0.000 HD
BRANCH 17 30
ATOM     30  O4  BGC B   3      14.302   6.579   4.0090  0.00  0.00     0.000 O
BRANCH 30 34
ATOM     31  C1  BGC B   3      10.318   5.601   4.3190  0.00  0.00     0.000 C
ATOM     32  C2  BGC B   3      10.677   6.983   4.8650  0.00  0.00     0.000 C
ATOM     33  C3  BGC B   3      12.046   7.378   4.3410  0.00  0.00     0.000 C
ATOM     34  C4  BGC B   3      13.077   6.306   4.6960  0.00  0.00     0.000 C
ATOM     35  C5  BGC B   3      12.591   4.938   4.2520  0.00  0.00     0.000 C
ATOM     36  O5  BGC B   3      11.293   4.691   4.8040  0.00  0.00     0.000 O
ATOM     37   O  BGC B   3       9.724   7.938   4.4030  0.00  0.00     0.000 O
ATOM     39  HD  BGC B   3      10.072   8.520   4.9410  0.00  0.00     0.000 HD
ATOM     39   O  BGC B   3      12.404   8.626   4.9140  0.00  0.00     0.000 O
ATOM     41  HD  BGC B   3      12.752   9.209   5.4530  0.00  0.00     0.000 HD
ATOM     41   C  BGC B   3      13.517   3.793   4.6480  0.00  0.00     0.000 C
ATOM     42   O  BGC B   3      13.695   3.773   6.0440  0.00  0.00     0.000 O
ATOM     44  HD  BGC B   3      14.042   4.356   6.5830  0.00  0.00     0.000 HD
BRANCH 31 44
ATOM     44  O4  BGC B   4       9.097   5.227   4.9040  0.00  0.00     0.000 O
BRANCH 44 48
ATOM     45  C1  BGC B   4       5.775   2.959   4.1180  0.00  0.00     0.000 C
ATOM     46  C2  BGC B   4       7.000   2.166   4.5520  0.00  0.00     0.000 C
ATOM     47  C3  BGC B   4       8.006   3.099   5.1800  0.00  0.00     0.000 C
ATOM     48  C4  BGC B   4       8.323   4.257   4.2280  0.00  0.00     0.000 C
ATOM     49  C5  BGC B   4       7.032   4.938   3.7580  0.00  0.00     0.000 C
ATOM     50  O5  BGC B   4       6.154   3.963   3.1760  0.00  0.00     0.000 O
ATOM     51   O  BGC B   4       6.623   1.164   5.5150  0.00  0.00     0.000 O
ATOM     53  HD  BGC B   4       6.966   1.750   6.0530  0.00  0.00     0.000 HD
ATOM     53   O  BGC B   4       9.204   2.363   5.4640  0.00  0.00     0.000 O
ATOM     55  HD  BGC B   4       9.547   2.949   6.0020  0.00  0.00     0.000 HD
ATOM     55   C  BGC B   4       7.239   6.026   2.7190  0.00  0.00     0.000 C
ATOM     56   O  BGC B   4       7.962   5.454   1.6280  0.00  0.00     0.000 O
ATOM     58  HD  BGC B   4       8.304   6.039   2.1660  0.00  0.00     0.000 HD
BRANCH 45 58
ATOM     58  O4  BGC B   5       4.998   2.070   3.3150  0.00  0.00     0.000 O
BRANCH 58 62
ATOM     59  C1  BGC B   5       1.288   2.115   1.4770  0.00  0.00     0.000 C
ATOM     60  C2  BGC B   5       1.795   3.462   1.9510  0.00  0.00     0.000 C
ATOM     61  C3  BGC B   5       3.288   3.406   2.2150  0.00  0.00     0.000 C
ATOM     62  C4  BGC B   5       3.589   2.277   3.1870  0.00  0.00     0.000 C
ATOM     63  C5  BGC B   5       2.981   0.957   2.6890  0.00  0.00     0.000 C
ATOM     64  O5  BGC B   5       1.584   1.143   2.4850  0.00  0.00     0.000 O
ATOM     65   O  BGC B   5       2.556   0.247   4.8820  0.00  0.00     0.000 O
ATOM     67  HD  BGC B   5       2.808   0.385   5.6990  0.00  0.00     0.000 HD
ATOM     67   O  BGC B   5       2.556   0.247   4.8820  0.00  0.00     0.000 O
ATOM     69  HD  BGC B   5       2.808   0.385   5.6990  0.00  0.00     0.000 HD
ENDBRANCH 58 62
ENDBRANCH 45 58
ENDBRANCH 44 48
ENDBRANCH 31 44
ENDBRANCH 30 34
ENDBRANCH 17 30
ENDBRANCH 16 20
ENDBRANCH 1 16
TORSDOF 8
ENDMDL
MODEL 4
REMARK VINA RESULT:      -3.8      1.975     15.264
ROOT
ATOM      1  C1  BGC B   1      22.848   7.350   3.7320  0.00  0.00     0.000 C
ATOM      2  C2  BGC B   1      23.898   6.461   3.0670  0.00  0.00     0.000 C
ATOM      3  C3  BGC B   1      25.290   6.913   3.4650  0.00  0.00     0.000 C
ATOM      4  C4  BGC B   1      25.467   8.404   3.2110  0.00  0.00     0.000 C
ATOM      5  C5  BGC B   1      24.364   9.152   3.9460  0.00  0.00     0.000 C
ATOM      6  O5  BGC B   1      23.107   8.707   3.4030  0.00  0.00     0.000 O
ATOM      7   O  BGC B   1      23.703   5.101   3.4880  0.00  0.00     0.000 O
ATOM      9  HD  BGC B   1      24.394   4.580   3.4990  0.00  0.00     0.000 HD
ATOM      9   O  BGC B   1      26.252   6.153   2.7270  0.00  0.00     0.000 O
ATOM     11  HD  BGC B   1      26.943   5.631   2.7370  0.00  0.00     0.000 HD
ATOM     11   O  BGC B   1      26.729   8.820   3.6860  0.00  0.00     0.000 O
ATOM     13  HD  BGC B   1      27.420   8.298   3.6960  0.00  0.00     0.000 HD
ATOM     13   C  BGC B   1      24.432  10.668   3.8280  0.00  0.00     0.000 C
ATOM     14   O  BGC B   1      24.452  11.107   2.4730  0.00  0.00     0.000 O
ATOM     16  HD  BGC B   1      25.143  10.585   2.4840  0.00  0.00     0.000 HD
ENDROOT
BRANCH 1 16
ATOM     16  O4  BGC B   2      21.608   7.043   3.0970  0.00  0.00     0.000 O
BRANCH 16 20
ATOM     17  C1  BGC B   2      17.622   6.774   3.8570  0.00  0.00     0.000 C
ATOM     18  C2  BGC B   2      18.131   8.205   3.7590  0.00  0.00     0.000 C
ATOM     19  C3  BGC B   2      19.518   8.184   3.1220  0.00  0.00     0.000 C
ATOM     20  C4  BGC B   2      20.435   7.247   3.8810  0.00  0.00     0.000 C
ATOM     21  C5  BGC B   2      19.800   5.876   4.1200  0.00  0.00     0.000 C
ATOM     22  O5  BGC B   2      18.519   6.068   4.7340  0.00  0.00     0.000 O
ATOM     23   O  BGC B   2      17.248   8.988   2.9380  0.00  0.00     0.000 O
ATOM     25  HD  BGC B   2      18.022   8.622   2.8020  0.00  0.00     0.000 HD
ATOM     25   O  BGC B   2      20.063   9.498   3.1030  0.00  0.00     0.000 O
ATOM     27  HD  BGC B   2      20.836   9.133   2.9680  0.00  0.00     0.000 HD
ATOM     27   C  BGC B   2      20.629   4.990   5.0420  0.00  0.00     0.000 C
ATOM     28   O  BGC B   2      20.898   5.585   6.3010  0.00  0.00     0.000 O
ATOM     30  HD  BGC B   2      21.671   5.219   6.1660  0.00  0.00     0.000 HD
BRANCH 17 30
ATOM     30  O4  BGC B   3      16.390   6.824   4.5510  0.00  0.00     0.000 O
BRANCH 30 34
ATOM     31  C1  BGC B   3      12.751   4.907   4.6420  0.00  0.00     0.000 C
ATOM     32  C2  BGC B   3      13.961   3.976   4.7220  0.00  0.00     0.000 C
ATOM     33  C3  BGC B   3      15.188   4.796   5.0800  0.00  0.00     0.000 C
ATOM     34  C4  BGC B   3      15.373   5.935   4.0780  0.00  0.00     0.000 C
ATOM     35  C5  BGC B   3      14.087   6.732   3.9410  0.00  0.00     0.000 C
ATOM     36  O5  BGC B   3      13.011   5.848   3.6120  0.00  0.00     0.000 O
ATOM     37   O  BGC B   3      13.749   3.009   5.7490  0.00  0.00     0.000 O
ATOM     39  HD  BGC B   3      14.455   2.589   5.4750  0.00  0.00     0.000 HD
ATOM     39   O  BGC B   3      16.319   3.938   5.0760  0.00  0.00     0.000 O
ATOM     41  HD  BGC B   3      17.025   3.517   4.8020  0.00  0.00     0.000 HD
ATOM     41   C  BGC B   3      14.152   7.836   2.8920  0.00  0.00     0.000 C
ATOM     42   O  BGC B   3      14.477   7.293   1.6340  0.00  0.00     0.000 O
ATOM     44  HD  BGC B   3      15.183   6.872   1.3610  0.00  0.00     0.000 HD
BRANCH 31 44
ATOM     44  O4  BGC B   4      11.660   4.134   4.2110  0.00  0.00     0.000 O
BRANCH 44 48
ATOM     45  C1  BGC B   4       7.561   4.111   4.2350  0.00  0.00     0.000 C
ATOM     46  C2  BGC B   4       8.188   5.222   3.4040  0.00  0.00     0.000 C
ATOM     47  C3  BGC B   4       9.641   4.902   3.1500  0.00  0.00     0.000 C
ATOM     48  C4  BGC B   4      10.365   4.635   4.4730  0.00  0.00     0.000 C
ATOM     49  C5  BGC B   4       9.616   3.579   5.2950  0.00  0.00     0.000 C
ATOM     50  O5  BGC B   4       8.252   3.986   5.4790  0.00  0.00     0.000 O
ATOM     51   O  BGC B   4       7.505   5.339   2.1420  0.00  0.00     0.000 O
ATOM     53  HD  BGC B   4       8.210   4.913   1.8770  0.00  0.00     0.000 HD
ATOM     53   O  BGC B   4      10.249   6.015   2.4810  0.00  0.00     0.000 O
ATOM     55  HD  BGC B   4      10.955   5.589   2.2150  0.00  0.00     0.000 HD
ATOM     55   C  BGC B   4      10.196   3.331   6.6760  0.00  0.00     0.000 C
ATOM     56   O  BGC B   4      10.253   4.586   7.3560  0.00  0.00     0.000 O
ATOM     58  HD  BGC B   4      10.959   4.160   7.0910  0.00  0.00     0.000 HD
BRANCH 45 58
ATOM     58  O4  BGC B   5       6.286   4.602   4.6460  0.00  0.00     0.000 O
BRANCH 58 62
ATOM     59  C1  BGC B   5       2.595   3.007   3.6550  0.00  0.00     0.000 C
ATOM     60  C2  BGC B   5       2.725   3.511   5.0780  0.00  0.00     0.000 C
ATOM     61  C3  BGC B   5       3.925   4.429   5.2110  0.00  0.00     0.000 C
ATOM     62  C4  BGC B   5       5.170   3.711   4.7140  0.00  0.00     0.000 C
ATOM     63  C5  BGC B   5       4.946   3.156   3.3000  0.00  0.00     0.000 C
ATOM     64  O5  BGC B   5       3.799   2.313   3.3130  0.00  0.00     0.000 O
ATOM     65   O  BGC B   5       6.305   1.297   3.7400  0.00  0.00     0.000 O
ATOM     67  HD  BGC B   5       6.936   1.031   4.2700  0.00  0.00     0.000 HD
ATOM     67   O  BGC B   5       6.305   1.297   3.7400  0.00  0.00     0.000 O
ATOM     69  HD  BGC B   5       6.936   1.031   4.2700  0.00  0.00     0.000 HD
ENDBRANCH 58 62
ENDBRANCH 45 58
ENDBRANCH 44 48
ENDBRANCH 31 44
ENDBRANCH 30 34
ENDBRANCH 17 30
ENDBRANCH 16 20
ENDBRANCH 1 16
TORSDOF 8
ENDMDL
MODEL 5
REMARK VINA RESULT:      -2.9      3.834     16.850
ROOT
ATOM      1  C1  BGC B   1      27.198   9.431   5.4530  0.00  0.00     0.000 C
ATOM      2  C2  BGC B   1      28.438   9.160   6.3030  0.00  0.00     0.000 C
ATOM      3  C3  BGC B   1      29.355  10.368   6.2880  0.00  0.00     0.000 C
ATOM      4  C4  BGC B   1      29.648  10.804   4.8580  0.00  0.00     0.000 C
ATOM      5  C5  BGC B   1      28.324  11.050   4.1480  0.00  0.00     0.000 C
ATOM      6  O5  BGC B   1      27.601   9.805   4.1430  0.00  0.00     0.000 O
ATOM      7   O  BGC B   1      28.035   8.889   7.6560  0.00  0.00     0.000 O
ATOM      9  HD  BGC B   1      28.595   9.077   8.2880  0.00  0.00     0.000 HD
ATOM      9   O  BGC B   1      30.564  10.040   6.9780  0.00  0.00     0.000 O
ATOM     11  HD  BGC B   1      31.125  10.228   7.6110  0.00  0.00     0.000 HD
ATOM     11   O  BGC B   1      30.413  11.990   4.8720  0.00  0.00     0.000 O
ATOM     13  HD  BGC B   1      30.974  12.177   5.5040  0.00  0.00     0.000 HD
ATOM     13   C  BGC B   1      28.450  11.543   2.7140  0.00  0.00     0.000 C
ATOM     14   O  BGC B   1      29.240  10.673   1.9090  0.00  0.00     0.000 O
ATOM     16  HD  BGC B   1      29.801  10.861   2.5420  0.00  0.00     0.000 HD
ENDROOT
BRANCH 1 16
ATOM     16  O4  BGC B   2      26.541   8.175   5.2950  0.00  0.00     0.000 O
BRANCH 16 20
ATOM     17  C1  BGC B   2      23.087   6.590   3.8470  0.00  0.00     0.000 C
ATOM     18  C2  BGC B   2      24.157   6.797   2.7850  0.00  0.00     0.000 C
ATOM     19  C3  BGC B   2      25.493   7.039   3.4840  0.00  0.00     0.000 C
ATOM     20  C4  BGC B   2      25.373   8.176   4.4780  0.00  0.00     0.000 C
ATOM     21  C5  BGC B   2      24.167   8.015   5.4040  0.00  0.00     0.000 C
ATOM     22  O5  BGC B   2      22.998   7.815   4.5990  0.00  0.00     0.000 O
ATOM     23   O  BGC B   2      24.264   5.628   1.9570  0.00  0.00     0.000 O
ATOM     25  HD  BGC B   2      24.740   5.944   2.6080  0.00  0.00     0.000 HD
ATOM     25   O  BGC B   2      26.498   7.332   2.5200  0.00  0.00     0.000 O
ATOM     27  HD  BGC B   2      26.974   7.647   3.1710  0.00  0.00     0.000 HD
ATOM     27   C  BGC B   2      23.923   9.238   6.2790  0.00  0.00     0.000 C
ATOM     28   O  BGC B   2      23.763  10.437   5.5390  0.00  0.00     0.000 O
ATOM     30  HD  BGC B   2      24.239  10.753   6.1900  0.00  0.00     0.000 HD
BRANCH 17 30
ATOM     30  O4  BGC B   3      21.851   6.483   3.1670  0.00  0.00     0.000 O
BRANCH 30 34
ATOM     31  C1  BGC B   3      17.926   5.728   4.1440  0.00  0.00     0.000 C
ATOM     32  C2  BGC B   3      18.279   7.211   4.0350  0.00  0.00     0.000 C
ATOM     33  C3  BGC B   3      19.599   7.349   3.2970  0.00  0.00     0.000 C
ATOM     34  C4  BGC B   3      20.682   6.524   3.9920  0.00  0.00     0.000 C
ATOM     35  C5  BGC B   3      20.208   5.095   4.1960  0.00  0.00     0.000 C
ATOM     36  O5  BGC B   3      18.957   5.103   4.8920  0.00  0.00     0.000 O
ATOM     37   O  BGC B   3      17.271   7.886   3.2870  0.00  0.00     0.000 O
ATOM     39  HD  BGC B   3      17.636   8.640   3.5060  0.00  0.00     0.000 HD
ATOM     39   O  BGC B   3      19.957   8.723   3.2690  0.00  0.00     0.000 O
ATOM     41  HD  BGC B   3      20.322   9.477   3.4890  0.00  0.00     0.000 HD
ATOM     41   C  BGC B   3      21.191   4.221   4.9660  0.00  0.00     0.000 C
ATOM     42   O  BGC B   3      21.461   4.787   6.2260  0.00  0.00     0.000 O
ATOM     44  HD  BGC B   3      21.826   5.541   6.4460  0.00  0.00     0.000 HD
BRANCH 31 44
ATOM     44  O4  BGC B   4      16.758   5.634   4.9180  0.00  0.00     0.000 O
BRANCH 44 48
ATOM     45  C1  BGC B   4      13.351   3.386   5.2890  0.00  0.00     0.000 C
ATOM     46  C2  BGC B   4      14.648   2.617   5.4970  0.00  0.00     0.000 C
ATOM     47  C3  BGC B   4      15.778   3.590   5.7270  0.00  0.00     0.000 C
ATOM     48  C4  BGC B   4      15.840   4.612   4.5870  0.00  0.00     0.000 C
ATOM     49  C5  BGC B   4      14.470   5.268   4.3760  0.00  0.00     0.000 C
ATOM     50  O5  BGC B   4      13.476   4.255   4.1630  0.00  0.00     0.000 O
ATOM     51   O  BGC B   4      14.532   1.752   6.6420  0.00  0.00     0.000 O
ATOM     53  HD  BGC B   4      14.998   2.389   6.9980  0.00  0.00     0.000 HD
ATOM     53   O  BGC B   4      17.012   2.859   5.7890  0.00  0.00     0.000 O
ATOM     55  HD  BGC B   4      17.478   3.496   6.1450  0.00  0.00     0.000 HD
ATOM     55   C  BGC B   4      14.403   6.213   3.1900  0.00  0.00     0.000 C
ATOM     56   O  BGC B   4      14.826   5.490   2.0330  0.00  0.00     0.000 O
ATOM     58  HD  BGC B   4      15.293   6.127   2.3880  0.00  0.00     0.000 HD
BRANCH 45 58
ATOM     58  O4  BGC B   5      12.398   2.428   4.8280  0.00  0.00     0.000 O
BRANCH 58 62
ATOM     59  C1  BGC B   5       8.432   1.305   5.2260  0.00  0.00     0.000 C
ATOM     60  C2  BGC B   5       8.661   2.720   4.7350  0.00  0.00     0.000 C
ATOM     61  C3  BGC B   5      10.083   2.887   4.2340  0.00  0.00     0.000 C
ATOM     62  C4  BGC B   5      11.058   2.465   5.3220  0.00  0.00     0.000 C
ATOM     63  C5  BGC B   5      10.723   1.056   5.8320  0.00  0.00     0.000 C
ATOM     64  O5  BGC B   5       9.370   1.035   6.2730  0.00  0.00     0.000 O
ATOM     65   O  BGC B   5      11.413   1.603   8.0040  0.00  0.00     0.000 O
ATOM     67  HD  BGC B   5      11.909   2.167   8.4350  0.00  0.00     0.000 HD
ATOM     67   O  BGC B   5      11.413   1.603   8.0040  0.00  0.00     0.000 O
ATOM     69  HD  BGC B   5      11.909   2.167   8.4350  0.00  0.00     0.000 HD
ENDBRANCH 58 62
ENDBRANCH 45 58
ENDBRANCH 44 48
ENDBRANCH 31 44
ENDBRANCH 30 34
ENDBRANCH 17 30
ENDBRANCH 16 20
ENDBRANCH 1 16
TORSDOF 8
ENDMDL
MODEL 6
REMARK VINA RESULT:      -2.3      9.848     16.014
ROOT
ATOM      1  C1  BGC B   1       8.938  12.233  16.7660  0.00  0.00     0.000 C
ATOM      2  C2  BGC B   1      10.434  12.393  17.0320  0.00  0.00     0.000 C
ATOM      3  C3  BGC B   1      10.656  13.027  18.3910  0.00  0.00     0.000 C
ATOM      4  C4  BGC B   1       9.846  14.311  18.5260  0.00  0.00     0.000 C
ATOM      5  C5  BGC B   1       8.385  13.989  18.2500  0.00  0.00     0.000 C
ATOM      6  O5  BGC B   1       8.301  13.496  16.9000  0.00  0.00     0.000 O
ATOM      7   O  BGC B   1      11.059  11.099  17.0050  0.00  0.00     0.000 O
ATOM      9  HD  BGC B   1      11.778  10.990  17.4760  0.00  0.00     0.000 HD
ATOM      9   O  BGC B   1      12.053  13.287  18.5570  0.00  0.00     0.000 O
ATOM     11  HD  BGC B   1      12.772  13.177  19.0280  0.00  0.00     0.000 HD
ATOM     11   O  BGC B   1       9.987  14.824  19.8330  0.00  0.00     0.000 O
ATOM     13  HD  BGC B   1      10.705  14.715  20.3040  0.00  0.00     0.000 HD
ATOM     13   C  BGC B   1       7.433  15.168  18.3940  0.00  0.00     0.000 C
ATOM     14   O  BGC B   1       7.815  16.276  17.5840  0.00  0.00     0.000 O
ATOM     16  HD  BGC B   1       8.533  16.166  18.0550  0.00  0.00     0.000 HD
ENDROOT
BRANCH 1 16
ATOM     16  O4  BGC B   2       8.812  11.899  15.3850  0.00  0.00     0.000 O
BRANCH 16 20
ATOM     17  C1  BGC B   2       6.484   9.713  12.8670  0.00  0.00     0.000 C
ATOM     18  C2  BGC B   2       5.914  11.086  13.1890  0.00  0.00     0.000 C
ATOM     19  C3  BGC B   2       7.016  11.932  13.8220  0.00  0.00     0.000 C
ATOM     20  C4  BGC B   2       7.620  11.213  15.0110  0.00  0.00     0.000 C
ATOM     21  C5  BGC B   2       8.005   9.769  14.6850  0.00  0.00     0.000 C
ATOM     22  O5  BGC B   2       6.865   9.111  14.1180  0.00  0.00     0.000 O
ATOM     23   O  BGC B   2       5.460  11.728  11.9860  0.00  0.00     0.000 O
ATOM     25  HD  BGC B   2       6.165  11.819  12.4820  0.00  0.00     0.000 HD
ATOM     25   O  BGC B   2       6.489  13.192  14.2240  0.00  0.00     0.000 O
ATOM     27  HD  BGC B   2       7.194  13.283  14.7190  0.00  0.00     0.000 HD
ATOM     27   C  BGC B   2       8.435   8.977  15.9130  0.00  0.00     0.000 C
ATOM     28   O  BGC B   2       7.459   8.959  16.9410  0.00  0.00     0.000 O
ATOM     30  HD  BGC B   2       8.163   9.050  17.4370  0.00  0.00     0.000 HD
BRANCH 17 30
ATOM     30  O4  BGC B   3       5.410   8.925  12.3890  0.00  0.00     0.000 O
BRANCH 30 34
ATOM     31  C1  BGC B   3       4.702   5.806   9.8010  0.00  0.00     0.000 C
ATOM     32  C2  BGC B   3       5.419   5.410  11.0910  0.00  0.00     0.000 C
ATOM     33  C3  BGC B   3       5.263   6.530  12.1040  0.00  0.00     0.000 C
ATOM     34  C4  BGC B   3       5.768   7.848  11.5170  0.00  0.00     0.000 C
ATOM     35  C5  BGC B   3       5.120   8.108  10.1690  0.00  0.00     0.000 C
ATOM     36  O5  BGC B   3       5.332   6.980   9.3130  0.00  0.00     0.000 O
ATOM     37   O  BGC B   3       4.820   4.232  11.6260  0.00  0.00     0.000 O
ATOM     39  HD  BGC B   3       5.468   4.182  12.1990  0.00  0.00     0.000 HD
ATOM     39   O  BGC B   3       5.996   6.188  13.2710  0.00  0.00     0.000 O
ATOM     41  HD  BGC B   3       6.644   6.139  13.8440  0.00  0.00     0.000 HD
ATOM     41   C  BGC B   3       5.634   9.359   9.4660  0.00  0.00     0.000 C
ATOM     42   O  BGC B   3       7.028   9.276   9.2840  0.00  0.00     0.000 O
ATOM     44  HD  BGC B   3       7.676   9.226   9.8570  0.00  0.00     0.000 HD
BRANCH 31 44
ATOM     44  O4  BGC B   4       4.954   4.796   8.8590  0.00  0.00     0.000 O
BRANCH 44 48
ATOM     45  C1  BGC B   4       3.369   3.298   5.3880  0.00  0.00     0.000 C
ATOM     46  C2  BGC B   4       4.347   4.449   5.1980  0.00  0.00     0.000 C
ATOM     47  C3  BGC B   4       5.144   4.646   6.4640  0.00  0.00     0.000 C
ATOM     48  C4  BGC B   4       4.205   4.824   7.6610  0.00  0.00     0.000 C
ATOM     49  C5  BGC B   4       3.187   3.678   7.7230  0.00  0.00     0.000 C
ATOM     50  O5  BGC B   4       2.486   3.584   6.4740  0.00  0.00     0.000 O
ATOM     51   O  BGC B   4       5.250   4.155   4.1150  0.00  0.00     0.000 O
ATOM     53  HD  BGC B   4       5.775   3.984   4.7810  0.00  0.00     0.000 HD
ATOM     53   O  BGC B   4       5.965   5.813   6.3150  0.00  0.00     0.000 O
ATOM     55  HD  BGC B   4       6.491   5.642   6.9820  0.00  0.00     0.000 HD
ATOM     55   C  BGC B   4       2.139   3.827   8.8100  0.00  0.00     0.000 C
ATOM     56   O  BGC B   4       1.499   5.092   8.6270  0.00  0.00     0.000 O
ATOM     58  HD  BGC B   4       2.025   4.921   9.2940  0.00  0.00     0.000 HD
BRANCH 45 58
ATOM     58  O4  BGC B   5       2.490   3.341   4.2640  0.00  0.00     0.000 O
BRANCH 58 62
ATOM     59  C1  BGC B   5       0.336   0.907   1.6990  0.00  0.00     0.000 C
ATOM     60  C2  BGC B   5      -0.016   0.777   3.1670  0.00  0.00     0.000 C
ATOM     61  C3  BGC B   5       0.506   1.969   3.9470  0.00  0.00     0.000 C
ATOM     62  C4  BGC B   5       1.998   2.124   3.7000  0.00  0.00     0.000 C
ATOM     63  C5  BGC B   5       2.295   2.169   2.1940  0.00  0.00     0.000 C
ATOM     64  O5  BGC B   5       1.760   0.999   1.5840  0.00  0.00     0.000 O
ATOM     65   O  BGC B   5       4.340   1.063   2.4950  0.00  0.00     0.000 O
ATOM     67  HD  BGC B   5       4.936   0.896   3.1010  0.00  0.00     0.000 HD
ATOM     67   O  BGC B   5       4.340   1.063   2.4950  0.00  0.00     0.000 O
ATOM     69  HD  BGC B   5       4.936   0.896   3.1010  0.00  0.00     0.000 HD
ENDBRANCH 58 62
ENDBRANCH 45 58
ENDBRANCH 44 48
ENDBRANCH 31 44
ENDBRANCH 30 34
ENDBRANCH 17 30
ENDBRANCH 16 20
ENDBRANCH 1 16
TORSDOF 8
ENDMDL
MODEL 7
REMARK VINA RESULT:      -2.0     10.878     16.779
ROOT
ATOM      1  C1  BGC B   1       2.938  11.808  19.1300  0.00  0.00     0.000 C
ATOM      2  C2  BGC B   1       3.001  11.197  20.5290  0.00  0.00     0.000 C
ATOM      3  C3  BGC B   1       2.559  12.215  21.5630  0.00  0.00     0.000 C
ATOM      4  C4  BGC B   1       3.333  13.518  21.4020  0.00  0.00     0.000 C
ATOM      5  C5  BGC B   1       3.162  14.007  19.9710  0.00  0.00     0.000 C
ATOM      6  O5  BGC B   1       3.713  12.998  19.1030  0.00  0.00     0.000 O
ATOM      7   O  BGC B   1       2.130  10.055  20.5870  0.00  0.00     0.000 O
ATOM      9  HD  BGC B   1       1.792   9.846  21.3560  0.00  0.00     0.000 HD
ATOM      9   O  BGC B   1       2.755  11.664  22.8680  0.00  0.00     0.000 O
ATOM     11  HD  BGC B   1       2.416  11.454  23.6370  0.00  0.00     0.000 HD
ATOM     11   O  BGC B   1       2.832  14.481  22.3030  0.00  0.00     0.000 O
ATOM     13  HD  BGC B   1       2.493  14.272  23.0720  0.00  0.00     0.000 HD
ATOM     13   C  BGC B   1       3.842  15.333  19.6640  0.00  0.00     0.000 C
ATOM     14   O  BGC B   1       5.232  15.315  19.9730  0.00  0.00     0.000 O
ATOM     16  HD  BGC B   1       4.894  15.105  20.7420  0.00  0.00     0.000 HD
ENDROOT
BRANCH 1 16
ATOM     16  O4  BGC B   2       3.621  10.900  18.2680  0.00  0.00     0.000 O
BRANCH 16 20
ATOM     17  C1  BGC B   2       3.521   9.408  14.4870  0.00  0.00     0.000 C
ATOM     18  C2  BGC B   2       4.038  10.837  14.5670  0.00  0.00     0.000 C
ATOM     19  C3  BGC B   2       4.373  11.151  16.0230  0.00  0.00     0.000 C
ATOM     20  C4  BGC B   2       3.180  10.868  16.9140  0.00  0.00     0.000 C
ATOM     21  C5  BGC B   2       2.578   9.486  16.6600  0.00  0.00     0.000 C
ATOM     22  O5  BGC B   2       2.307   9.356  15.2590  0.00  0.00     0.000 O
ATOM     23   O  BGC B   2       5.225  10.978  13.7700  0.00  0.00     0.000 O
ATOM     25  HD  BGC B   2       5.083  10.901  14.6210  0.00  0.00     0.000 HD
ATOM     25   O  BGC B   2       4.769  12.512  16.1470  0.00  0.00     0.000 O
ATOM     27  HD  BGC B   2       4.626  12.434  16.9970  0.00  0.00     0.000 HD
ATOM     27   C  BGC B   2       1.270   9.261  17.4080  0.00  0.00     0.000 C
ATOM     28   O  BGC B   2       0.283  10.239  17.1220  0.00  0.00     0.000 O
ATOM     30  HD  BGC B   2       0.141  10.161  17.9730  0.00  0.00     0.000 HD
BRANCH 17 30
ATOM     30  O4  BGC B   3       3.117   9.194  13.1480  0.00  0.00     0.000 O
BRANCH 30 34
ATOM     31  C1  BGC B   3       2.902   6.172  10.3640  0.00  0.00     0.000 C
ATOM     32  C2  BGC B   3       2.184   5.875  11.6790  0.00  0.00     0.000 C
ATOM     33  C3  BGC B   3       1.993   7.176  12.4390  0.00  0.00     0.000 C
ATOM     34  C4  BGC B   3       3.337   7.876  12.6350  0.00  0.00     0.000 C
ATOM     35  C5  BGC B   3       4.061   8.010  11.3060  0.00  0.00     0.000 C
ATOM     36  O5  BGC B   3       4.169   6.722  10.6910  0.00  0.00     0.000 O
ATOM     37   O  BGC B   3       0.899   5.320  11.4050  0.00  0.00     0.000 O
ATOM     39  HD  BGC B   3       0.815   5.141  12.2480  0.00  0.00     0.000 HD
ATOM     39   O  BGC B   3       1.395   6.881  13.6930  0.00  0.00     0.000 O
ATOM     41  HD  BGC B   3       1.310   6.702  14.5360  0.00  0.00     0.000 HD
ATOM     41   C  BGC B   3       5.455   8.617  11.4190  0.00  0.00     0.000 C
ATOM     42   O  BGC B   3       6.251   7.846  12.2870  0.00  0.00     0.000 O
ATOM     44  HD  BGC B   3       6.167   7.667  13.1300  0.00  0.00     0.000 HD
BRANCH 31 44
ATOM     44  O4  BGC B   4       3.152   4.939   9.7390  0.00  0.00     0.000 O
BRANCH 44 48
ATOM     45  C1  BGC B   4       3.340   3.239   6.0140  0.00  0.00     0.000 C
ATOM     46  C2  BGC B   4       4.476   4.199   6.3350  0.00  0.00     0.000 C
ATOM     47  C3  BGC B   4       4.522   4.445   7.8230  0.00  0.00     0.000 C
ATOM     48  C4  BGC B   4       3.154   4.916   8.3260  0.00  0.00     0.000 C
ATOM     49  C5  BGC B   4       2.052   3.949   7.8750  0.00  0.00     0.000 C
ATOM     50  O5  BGC B   4       2.098   3.794   6.4490  0.00  0.00     0.000 O
ATOM     51   O  BGC B   4       5.733   3.635   5.9130  0.00  0.00     0.000 O
ATOM     53  HD  BGC B   4       5.791   3.479   6.7620  0.00  0.00     0.000 HD
ATOM     53   O  BGC B   4       5.510   5.449   8.0950  0.00  0.00     0.000 O
ATOM     55  HD  BGC B   4       5.569   5.293   8.9450  0.00  0.00     0.000 HD
ATOM     55   C  BGC B   4       0.644   4.394   8.2280  0.00  0.00     0.000 C
ATOM     56   O  BGC B   4       0.452   5.703   7.6880  0.00  0.00     0.000 O
ATOM     58  HD  BGC B   4       0.511   5.547   8.5380  0.00  0.00     0.000 HD
BRANCH 45 58
ATOM     58  O4  BGC B   5       3.199   3.260   4.5940  0.00  0.00     0.000 O
BRANCH 58 62
ATOM     59  C1  BGC B   5       1.183   1.255   1.5830  0.00  0.00     0.000 C
ATOM     60  C2  BGC B   5       0.479   2.478   2.1340  0.00  0.00     0.000 C
ATOM     61  C3  BGC B   5       1.452   3.353   2.9020  0.00  0.00     0.000 C
ATOM     62  C4  BGC B   5       2.141   2.524   3.9740  0.00  0.00     0.000 C
ATOM     63  C5  BGC B   5       2.765   1.260   3.3640  0.00  0.00     0.000 C
ATOM     64  O5  BGC B   5       1.752   0.532   2.6790  0.00  0.00     0.000 O
ATOM     65   O  BGC B   5       2.327   0.024   5.3070  0.00  0.00     0.000 O
ATOM     67  HD  BGC B   5       2.169   0.125   6.1520  0.00  0.00     0.000 HD
ATOM     67   O  BGC B   5       2.327   0.024   5.3070  0.00  0.00     0.000 O
ATOM     69  HD  BGC B   5       2.169   0.125   6.1520  0.00  0.00     0.000 HD
ENDBRANCH 58 62
ENDBRANCH 45 58
ENDBRANCH 44 48
ENDBRANCH 31 44
ENDBRANCH 30 34
ENDBRANCH 17 30
ENDBRANCH 16 20
ENDBRANCH 1 16
TORSDOF 8
ENDMDL
MODEL 8
REMARK VINA RESULT:      -2.0      6.659     18.201
ROOT
ATOM      1  C1  BGC B   1      26.601  15.662   8.4380  0.00  0.00     0.000 C
ATOM      2  C2  BGC B   1      26.836  15.915   9.9260  0.00  0.00     0.000 C
ATOM      3  C3  BGC B   1      27.849  17.029  10.1110  0.00  0.00     0.000 C
ATOM      4  C4  BGC B   1      29.112  16.747   9.3070  0.00  0.00     0.000 C
ATOM      5  C5  BGC B   1      28.720  16.533   7.8520  0.00  0.00     0.000 C
ATOM      6  O5  BGC B   1      27.845  15.391   7.8070  0.00  0.00     0.000 O
ATOM      7   O  BGC B   1      25.595  16.297  10.5420  0.00  0.00     0.000 O
ATOM      9  HD  BGC B   1      25.633  16.803  11.2450  0.00  0.00     0.000 HD
ATOM      9   O  BGC B   1      28.149  17.154  11.5040  0.00  0.00     0.000 O
ATOM     11  HD  BGC B   1      28.187  17.659  12.2070  0.00  0.00     0.000 HD
ATOM     11   O  BGC B   1      29.994  17.844   9.4110  0.00  0.00     0.000 O
ATOM     13  HD  BGC B   1      30.032  18.349  10.1130  0.00  0.00     0.000 HD
ATOM     13   C  BGC B   1      29.886  16.287   6.9060  0.00  0.00     0.000 C
ATOM     14   O  BGC B   1      30.700  15.194   7.3210  0.00  0.00     0.000 O
ATOM     16  HD  BGC B   1      30.738  15.699   8.0230  0.00  0.00     0.000 HD
ENDROOT
BRANCH 1 16
ATOM     16  O4  BGC B   2      25.867  14.441   8.3530  0.00  0.00     0.000 O
BRANCH 16 20
ATOM     17  C1  BGC B   2      23.031  12.617   6.0800  0.00  0.00     0.000 C
ATOM     18  C2  BGC B   2      24.440  12.490   5.5190  0.00  0.00     0.000 C
ATOM     19  C3  BGC B   2      25.434  12.877   6.6110  0.00  0.00     0.000 C
ATOM     20  C4  BGC B   2      25.105  14.249   7.1640  0.00  0.00     0.000 C
ATOM     21  C5  BGC B   2      23.629  14.387   7.5390  0.00  0.00     0.000 C
ATOM     22  O5  BGC B   2      22.834  14.005   6.4090  0.00  0.00     0.000 O
ATOM     23   O  BGC B   2      24.690  11.133   5.1150  0.00  0.00     0.000 O
ATOM     25  HD  BGC B   2      24.924  11.604   5.8030  0.00  0.00     0.000 HD
ATOM     25   O  BGC B   2      26.758  12.860   6.0890  0.00  0.00     0.000 O
ATOM     27  HD  BGC B   2      26.992  13.331   6.7770  0.00  0.00     0.000 HD
ATOM     27   C  BGC B   2      23.243  15.812   7.9160  0.00  0.00     0.000 C
ATOM     28   O  BGC B   2      23.540  16.762   6.9050  0.00  0.00     0.000 O
ATOM     30  HD  BGC B   2      23.774  17.232   7.5940  0.00  0.00     0.000 HD
BRANCH 17 30
ATOM     30  O4  BGC B   3      22.140  12.361   5.0110  0.00  0.00     0.000 O
BRANCH 30 34
ATOM     31  C1  BGC B   3      18.389  10.808   4.3480  0.00  0.00     0.000 C
ATOM     32  C2  BGC B   3      18.397  12.190   4.9990  0.00  0.00     0.000 C
ATOM     33  C3  BGC B   3      19.773  12.808   4.8240  0.00  0.00     0.000 C
ATOM     34  C4  BGC B   3      20.846  11.874   5.3820  0.00  0.00     0.000 C
ATOM     35  C5  BGC B   3      20.690  10.481   4.8000  0.00  0.00     0.000 C
ATOM     36  O5  BGC B   3      19.354  10.018   5.0240  0.00  0.00     0.000 O
ATOM     37   O  BGC B   3      17.441  13.027   4.3520  0.00  0.00     0.000 O
ATOM     39  HD  BGC B   3      17.563  13.619   4.9720  0.00  0.00     0.000 HD
ATOM     39   O  BGC B   3      19.795  14.057   5.4970  0.00  0.00     0.000 O
ATOM     41  HD  BGC B   3      19.917  14.649   6.1180  0.00  0.00     0.000 HD
ATOM     41   C  BGC B   3      21.665   9.457   5.3720  0.00  0.00     0.000 C
ATOM     42   O  BGC B   3      21.519   9.377   6.7700  0.00  0.00     0.000 O
ATOM     44  HD  BGC B   3      21.641   9.969   7.3910  0.00  0.00     0.000 HD
BRANCH 31 44
ATOM     44  O4  BGC B   4      17.138  10.229   4.6190  0.00  0.00     0.000 O
BRANCH 44 48
ATOM     45  C1  BGC B   4      14.417   7.643   2.9710  0.00  0.00     0.000 C
ATOM     46  C2  BGC B   4      15.645   6.977   3.5730  0.00  0.00     0.000 C
ATOM     47  C3  BGC B   4      16.358   7.956   4.4740  0.00  0.00     0.000 C
ATOM     48  C4  BGC B   4      16.666   9.250   3.7150  0.00  0.00     0.000 C
ATOM     49  C5  BGC B   4      15.397   9.802   3.0540  0.00  0.00     0.000 C
ATOM     50  O5  BGC B   4      14.807   8.794   2.2200  0.00  0.00     0.000 O
ATOM     51   O  BGC B   4      15.254   5.827   4.3460  0.00  0.00     0.000 O
ATOM     53  HD  BGC B   4      15.393   6.385   4.9930  0.00  0.00     0.000 HD
ATOM     53   O  BGC B   4      17.580   7.359   4.9300  0.00  0.00     0.000 O
ATOM     55  HD  BGC B   4      17.720   7.918   5.5770  0.00  0.00     0.000 HD
ATOM     55   C  BGC B   4      15.625  11.023   2.1800  0.00  0.00     0.000 C
ATOM     56   O  BGC B   4      16.621  10.687   1.2130  0.00  0.00     0.000 O
ATOM     58  HD  BGC B   4      16.761  11.245   1.8600  0.00  0.00     0.000 HD
BRANCH 45 58
ATOM     58  O4  BGC B   5      13.954   6.760   1.9500  0.00  0.00     0.000 O
BRANCH 58 62
ATOM     59  C1  BGC B   5      10.493   5.196   0.2990  0.00  0.00     0.000 C
ATOM     60  C2  BGC B   5      10.620   6.705   0.2340  0.00  0.00     0.000 C
ATOM     61  C3  BGC B   5      12.057   7.129   0.4700  0.00  0.00     0.000 C
ATOM     62  C4  BGC B   5      12.551   6.542   1.7830  0.00  0.00     0.000 C
ATOM     63  C5  BGC B   5      12.320   5.024   1.8170  0.00  0.00     0.000 C
ATOM     64  O5  BGC B   5      10.940   4.762   1.5870  0.00  0.00     0.000 O
ATOM     65   O  BGC B   5      11.917   5.069   4.1260  0.00  0.00     0.000 O
ATOM     67  HD  BGC B   5      12.065   5.551   4.8300  0.00  0.00     0.000 HD
ATOM     67   O  BGC B   5      11.917   5.069   4.1260  0.00  0.00     0.000 O
ATOM     69  HD  BGC B   5      12.065   5.551   4.8300  0.00  0.00     0.000 HD
ENDBRANCH 58 62
ENDBRANCH 45 58
ENDBRANCH 44 48
ENDBRANCH 31 44
ENDBRANCH 30 34
ENDBRANCH 17 30
ENDBRANCH 16 20
ENDBRANCH 1 16
TORSDOF 8
ENDMDL
MODEL 9
REMARK VINA RESULT:      -1.9      5.335     17.673
ROOT
ATOM      1  C1  BGC B   1      27.365  12.490   8.6770  0.00  0.00     0.000 C
ATOM      2  C2  BGC B   1      27.853  12.379  10.1200  0.00  0.00     0.000 C
ATOM      3  C3  BGC B   1      28.935  13.407  10.3860  0.00  0.00     0.000 C
ATOM      4  C4  BGC B   1      30.034  13.317   9.3350  0.00  0.00     0.000 C
ATOM      5  C5  BGC B   1      29.399  13.460   7.9600  0.00  0.00     0.000 C
ATOM      6  O5  BGC B   1      28.474  12.369   7.7970  0.00  0.00     0.000 O
ATOM      7   O  BGC B   1      26.750  12.611  11.0120  0.00  0.00     0.000 O
ATOM      9  HD  BGC B   1      26.927  12.933  11.7960  0.00  0.00     0.000 HD
ATOM      9   O  BGC B   1      29.465  13.193  11.6970  0.00  0.00     0.000 O
ATOM     11  HD  BGC B   1      29.642  13.515  12.4820  0.00  0.00     0.000 HD
ATOM     11   O  BGC B   1      30.973  14.350   9.5410  0.00  0.00     0.000 O
ATOM     13  HD  BGC B   1      31.150  14.672  10.3250  0.00  0.00     0.000 HD
ATOM     13   C  BGC B   1      30.381  13.440   6.7970  0.00  0.00     0.000 C
ATOM     14   O  BGC B   1      31.199  12.274   6.7990  0.00  0.00     0.000 O
ATOM     16  HD  BGC B   1      31.376  12.595   7.5830  0.00  0.00     0.000 HD
ENDROOT
BRANCH 1 16
ATOM     16  O4  BGC B   2      26.570  11.332   8.4340  0.00  0.00     0.000 O
BRANCH 16 20
ATOM     17  C1  BGC B   2      23.284  10.148   6.3520  0.00  0.00     0.000 C
ATOM     18  C2  BGC B   2      24.565  10.133   5.5320  0.00  0.00     0.000 C
ATOM     19  C3  BGC B   2      25.753  10.233   6.4860  0.00  0.00     0.000 C
ATOM     20  C4  BGC B   2      25.605  11.440   7.3910  0.00  0.00     0.000 C
ATOM     21  C5  BGC B   2      24.226  11.511   8.0470  0.00  0.00     0.000 C
ATOM     22  O5  BGC B   2      23.228  11.421   7.0230  0.00  0.00     0.000 O
ATOM     23   O  BGC B   2      24.662   8.907   4.7880  0.00  0.00     0.000 O
ATOM     25  HD  BGC B   2      25.038   9.197   5.5120  0.00  0.00     0.000 HD
ATOM     25   O  BGC B   2      26.964  10.319   5.7440  0.00  0.00     0.000 O
ATOM     27  HD  BGC B   2      27.340  10.608   6.4690  0.00  0.00     0.000 HD
ATOM     27   C  BGC B   2      23.996  12.811   8.8060  0.00  0.00     0.000 C
ATOM     28   O  BGC B   2      24.170  13.968   8.0050  0.00  0.00     0.000 O
ATOM     30  HD  BGC B   2      24.546  14.258   8.7300  0.00  0.00     0.000 HD
BRANCH 17 30
ATOM     30  O4  BGC B   3      22.209  10.168   5.4320  0.00  0.00     0.000 O
BRANCH 30 34
ATOM     31  C1  BGC B   3      18.328   8.844   5.1030  0.00  0.00     0.000 C
ATOM     32  C2  BGC B   3      18.515  10.033   6.0440  0.00  0.00     0.000 C
ATOM     33  C3  BGC B   3      19.870  10.664   5.7750  0.00  0.00     0.000 C
ATOM     34  C4  BGC B   3      20.975   9.617   5.9040  0.00  0.00     0.000 C
ATOM     35  C5  BGC B   3      20.654   8.402   5.0520  0.00  0.00     0.000 C
ATOM     36  O5  BGC B   3      19.354   7.909   5.3960  0.00  0.00     0.000 O
ATOM     37   O  BGC B   3      17.505  11.007   5.7880  0.00  0.00     0.000 O
ATOM     39  HD  BGC B   3      17.759  11.434   6.4960  0.00  0.00     0.000 HD
ATOM     39   O  BGC B   3      20.067  11.719   6.7050  0.00  0.00     0.000 O
ATOM     41  HD  BGC B   3      20.322  12.146   7.4140  0.00  0.00     0.000 HD
ATOM     41   C  BGC B   3      21.660   7.265   5.1900  0.00  0.00     0.000 C
ATOM     42   O  BGC B   3      21.751   6.857   6.5350  0.00  0.00     0.000 O
ATOM     44  HD  BGC B   3      22.006   7.285   7.2440  0.00  0.00     0.000 HD
BRANCH 31 44
ATOM     44  O4  BGC B   4      17.115   8.227   5.4500  0.00  0.00     0.000 O
BRANCH 44 48
ATOM     45  C1  BGC B   4      13.992   6.243   3.6830  0.00  0.00     0.000 C
ATOM     46  C2  BGC B   4      15.182   5.366   4.0450  0.00  0.00     0.000 C
ATOM     47  C3  BGC B   4      16.072   6.100   5.0170  0.00  0.00     0.000 C
ATOM     48  C4  BGC B   4      16.462   7.469   4.4510  0.00  0.00     0.000 C
ATOM     49  C5  BGC B   4      15.215   8.249   4.0170  0.00  0.00     0.000 C
ATOM     50  O5  BGC B   4      14.448   7.461   3.0930  0.00  0.00     0.000 O
ATOM     51   O  BGC B   4      14.727   4.143   4.6560  0.00  0.00     0.000 O
ATOM     53  HD  BGC B   4      14.981   4.566   5.3680  0.00  0.00     0.000 HD
ATOM     53   O  BGC B   4      17.252   5.317   5.2470  0.00  0.00     0.000 O
ATOM     55  HD  BGC B   4      17.507   5.740   5.9590  0.00  0.00     0.000 HD
ATOM     55   C  BGC B   4      15.508   9.573   3.3350  0.00  0.00     0.000 C
ATOM     56   O  BGC B   4      16.377   9.312   2.2320  0.00  0.00     0.000 O
ATOM     58  HD  BGC B   4      16.631   9.734   2.9440  0.00  0.00     0.000 HD
BRANCH 45 58
ATOM     58  O4  BGC B   5      13.350   5.597   2.5840  0.00  0.00     0.000 O
BRANCH 58 62
ATOM     59  C1  BGC B   5      10.071   5.900   0.0730  0.00  0.00     0.000 C
ATOM     60  C2  BGC B   5      11.044   7.061   0.0150  0.00  0.00     0.000 C
ATOM     61  C3  BGC B   5      12.375   6.672   0.6310  0.00  0.00     0.000 C
ATOM     62  C4  BGC B   5      12.149   6.149   2.0400  0.00  0.00     0.000 C
ATOM     63  C5  BGC B   5      11.096   5.031   2.0400  0.00  0.00     0.000 C
ATOM     64  O5  BGC B   5       9.901   5.524   1.4430  0.00  0.00     0.000 O
ATOM     65   O  BGC B   5      10.301   5.686   4.1470  0.00  0.00     0.000 O
ATOM     67  HD  BGC B   5      10.541   6.125   4.8540  0.00  0.00     0.000 HD
ATOM     67   O  BGC B   5      10.301   5.686   4.1470  0.00  0.00     0.000 O
ATOM     69  HD  BGC B   5      10.541   6.125   4.8540  0.00  0.00     0.000 HD
ENDBRANCH 58 62
ENDBRANCH 45 58
ENDBRANCH 44 48
ENDBRANCH 31 44
ENDBRANCH 30 34
ENDBRANCH 17 30
ENDBRANCH 16 20
ENDBRANCH 1 16
TORSDOF 8
ENDMDL
MODEL 10
REMARK VINA RESULT:      -1.6      5.439     17.747
ROOT
ATOM      1  C1  BGC B   1      27.493  12.626   8.8110  0.00  0.00     0.000 C
ATOM      2  C2  BGC B   1      28.231  12.599  10.1490  0.00  0.00     0.000 C
ATOM      3  C3  BGC B   1      29.175  13.781  10.2460  0.00  0.00     0.000 C
ATOM      4  C4  BGC B   1      30.079  13.852   9.0220  0.00  0.00     0.000 C
ATOM      5  C5  BGC B   1      29.204  13.888   7.7780  0.00  0.00     0.000 C
ATOM      6  O5  BGC B   1      28.440  12.668   7.7540  0.00  0.00     0.000 O
ATOM      7   O  BGC B   1      27.274  12.667  11.2190  0.00  0.00     0.000 O
ATOM      9  HD  BGC B   1      27.532  13.017  11.9680  0.00  0.00     0.000 HD
ATOM      9   O  BGC B   1      29.947  13.659  11.4440  0.00  0.00     0.000 O
ATOM     11  HD  BGC B   1      30.205  14.009  12.1930  0.00  0.00     0.000 HD
ATOM     11   O  BGC B   1      30.873  15.017   9.0860  0.00  0.00     0.000 O
ATOM     13  HD  BGC B   1      31.131  15.367   9.8350  0.00  0.00     0.000 HD
ATOM     13   C  BGC B   1      29.965  14.009   6.4650  0.00  0.00     0.000 C
ATOM     14   O  BGC B   1      30.937  12.980   6.3050  0.00  0.00     0.000 O
ATOM     16  HD  BGC B   1      31.195  13.331   7.0540  0.00  0.00     0.000 HD
ENDROOT
BRANCH 1 16
ATOM     16  O4  BGC B   2      26.851  11.358   8.6850  0.00  0.00     0.000 O
BRANCH 16 20
ATOM     17  C1  BGC B   2      23.542   9.618   7.0850  0.00  0.00     0.000 C
ATOM     18  C2  BGC B   2      24.632   9.912   6.0650  0.00  0.00     0.000 C
ATOM     19  C3  BGC B   2      25.929  10.211   6.8130  0.00  0.00     0.000 C
ATOM     20  C4  BGC B   2      25.712  11.313   7.8290  0.00  0.00     0.000 C
ATOM     21  C5  BGC B   2      24.487  11.062   8.7100  0.00  0.00     0.000 C
ATOM     22  O5  BGC B   2      23.359  10.817   7.8620  0.00  0.00     0.000 O
ATOM     23   O  BGC B   2      24.832   8.771   5.2140  0.00  0.00     0.000 O
ATOM     25  HD  BGC B   2      25.268   9.097   5.8870  0.00  0.00     0.000 HD
ATOM     25   O  BGC B   2      26.946  10.584   5.8910  0.00  0.00     0.000 O
ATOM     27  HD  BGC B   2      27.382  10.909   6.5640  0.00  0.00     0.000 HD
ATOM     27   C  BGC B   2      24.146  12.247   9.6050  0.00  0.00     0.000 C
ATOM     28   O  BGC B   2      23.942  13.453   8.8880  0.00  0.00     0.000 O
ATOM     30  HD  BGC B   2      24.378  13.779   9.5610  0.00  0.00     0.000 HD
BRANCH 17 30
ATOM     30  O4  BGC B   3      22.336   9.459   6.3620  0.00  0.00     0.000 O
BRANCH 30 34
ATOM     31  C1  BGC B   3      18.771   7.417   6.5840  0.00  0.00     0.000 C
ATOM     32  C2  BGC B   3      18.947   8.505   7.6430  0.00  0.00     0.000 C
ATOM     33  C3  BGC B   3      20.078   9.425   7.2190  0.00  0.00     0.000 C
ATOM     34  C4  BGC B   3      21.351   8.618   6.9710  0.00  0.00     0.000 C
ATOM     35  C5  BGC B   3      21.071   7.467   6.0210  0.00  0.00     0.000 C
ATOM     36  O5  BGC B   3      19.985   6.685   6.5280  0.00  0.00     0.000 O
ATOM     37   O  BGC B   3      17.750   9.275   7.7370  0.00  0.00     0.000 O
ATOM     39  HD  BGC B   3      18.074   9.662   8.4410  0.00  0.00     0.000 HD
ATOM     39   O  BGC B   3      20.285  10.386   8.2440  0.00  0.00     0.000 O
ATOM     41  HD  BGC B   3      20.608  10.773   8.9480  0.00  0.00     0.000 HD
ATOM     41   C  BGC B   3      22.267   6.551   5.7880  0.00  0.00     0.000 C
ATOM     42   O  BGC B   3      22.719   6.021   7.0110  0.00  0.00     0.000 O
ATOM     44  HD  BGC B   3      23.042   6.408   7.7150  0.00  0.00     0.000 HD
BRANCH 31 44
ATOM     44  O4  BGC B   4      17.791   6.531   7.0580  0.00  0.00     0.000 O
BRANCH 44 48
ATOM     45  C1  BGC B   4      14.745   4.138   5.7140  0.00  0.00     0.000 C
ATOM     46  C2  BGC B   4      16.144   3.646   5.3670  0.00  0.00     0.000 C
ATOM     47  C3  BGC B   4      17.157   4.363   6.2260  0.00  0.00     0.000 C
ATOM     48  C4  BGC B   4      16.985   5.880   6.0970  0.00  0.00     0.000 C
ATOM     49  C5  BGC B   4      15.528   6.281   6.3620  0.00  0.00     0.000 C
ATOM     50  O5  BGC B   4      14.656   5.546   5.4910  0.00  0.00     0.000 O
ATOM     51   O  BGC B   4      16.242   2.230   5.6060  0.00  0.00     0.000 O
ATOM     53  HD  BGC B   4      16.654   2.517   6.3120  0.00  0.00     0.000 HD
ATOM     53   O  BGC B   4      18.473   3.987   5.7980  0.00  0.00     0.000 O
ATOM     55  HD  BGC B   4      18.885   4.274   6.5030  0.00  0.00     0.000 HD
ATOM     55   C  BGC B   4      15.234   7.755   6.1440  0.00  0.00     0.000 C
ATOM     56   O  BGC B   4      15.640   8.088   4.8160  0.00  0.00     0.000 O
ATOM     58  HD  BGC B   4      16.052   8.375   5.5210  0.00  0.00     0.000 HD
BRANCH 45 58
ATOM     58  O4  BGC B   5      13.885   3.617   4.7010  0.00  0.00     0.000 O
BRANCH 58 62
ATOM     59  C1  BGC B   5      10.327   1.549   4.2370  0.00  0.00     0.000 C
ATOM     60  C2  BGC B   5      10.186   3.036   4.4910  0.00  0.00     0.000 C
ATOM     61  C3  BGC B   5      11.501   3.748   4.2320  0.00  0.00     0.000 C
ATOM     62  C4  BGC B   5      12.601   3.100   5.0580  0.00  0.00     0.000 C
ATOM     63  C5  BGC B   5      12.638   1.585   4.8150  0.00  0.00     0.000 C
ATOM     64  O5  BGC B   5      11.353   1.041   5.0970  0.00  0.00     0.000 O
ATOM     65   O  BGC B   5      13.285   1.177   7.0310  0.00  0.00     0.000 O
ATOM     67  HD  BGC B   5      13.652   1.567   7.7120  0.00  0.00     0.000 HD
ATOM     67   O  BGC B   5      13.285   1.177   7.0310  0.00  0.00     0.000 O
ATOM     69  HD  BGC B   5      13.652   1.567   7.7120  0.00  0.00     0.000 HD
ENDBRANCH 58 62
ENDBRANCH 45 58
ENDBRANCH 44 48
ENDBRANCH 31 44
ENDBRANCH 30 34
ENDBRANCH 17 30
ENDBRANCH 16 20
ENDBRANCH 1 16
TORSDOF 8
ENDMDL
MODEL 11
REMARK VINA RESULT:      -1.6     10.742     16.557
ROOT
ATOM      1  C1  BGC B   1      18.268  15.609  18.3460  0.00  0.00     0.000 C
ATOM      2  C2  BGC B   1      19.646  15.653  19.0040  0.00  0.00     0.000 C
ATOM      3  C3  BGC B   1      19.551  16.312  20.3670  0.00  0.00     0.000 C
ATOM      4  C4  BGC B   1      18.852  17.662  20.2650  0.00  0.00     0.000 C
ATOM      5  C5  BGC B   1      17.496  17.454  19.6080  0.00  0.00     0.000 C
ATOM      6  O5  BGC B   1      17.733  16.924  18.2900  0.00  0.00     0.000 O
ATOM      7   O  BGC B   1      20.138  14.312  19.1600  0.00  0.00     0.000 O
ATOM      9  HD  BGC B   1      20.691  14.160  19.8090  0.00  0.00     0.000 HD
ATOM      9   O  BGC B   1      20.870  16.460  20.9010  0.00  0.00     0.000 O
ATOM     11  HD  BGC B   1      21.423  16.308  21.5500  0.00  0.00     0.000 HD
ATOM     11   O  BGC B   1      18.683  18.206  21.5560  0.00  0.00     0.000 O
ATOM     13  HD  BGC B   1      19.236  18.053  22.2050  0.00  0.00     0.000 HD
ATOM     13   C  BGC B   1      16.649  18.712  19.4780  0.00  0.00     0.000 C
ATOM     14   O  BGC B   1      17.331  19.756  18.7890  0.00  0.00     0.000 O
ATOM     16  HD  BGC B   1      17.884  19.603  19.4380  0.00  0.00     0.000 HD
ENDROOT
BRANCH 1 16
ATOM     16  O4  BGC B   2      18.488  15.240  16.9860  0.00  0.00     0.000 O
BRANCH 16 20
ATOM     17  C1  BGC B   2      16.662  13.352  13.8810  0.00  0.00     0.000 C
ATOM     18  C2  BGC B   2      16.208  14.791  14.0740  0.00  0.00     0.000 C
ATOM     19  C3  BGC B   2      17.199  15.492  15.0000  0.00  0.00     0.000 C
ATOM     20  C4  BGC B   2      17.362  14.713  16.2890  0.00  0.00     0.000 C
ATOM     21  C5  BGC B   2      17.630  13.228  16.0420  0.00  0.00     0.000 C
ATOM     22  O5  BGC B   2      16.610  12.718  15.1740  0.00  0.00     0.000 O
ATOM     23   O  BGC B   2      16.182  15.474  12.8090  0.00  0.00     0.000 O
ATOM     25  HD  BGC B   2      16.732  15.477  13.4780  0.00  0.00     0.000 HD
ATOM     25   O  BGC B   2      16.751  16.814  15.2770  0.00  0.00     0.000 O
ATOM     27  HD  BGC B   2      17.301  16.817  15.9460  0.00  0.00     0.000 HD
ATOM     27   C  BGC B   2      17.608  12.399  17.3200  0.00  0.00     0.000 C
ATOM     28   O  BGC B   2      16.397  12.520  18.0480  0.00  0.00     0.000 O
ATOM     30  HD  BGC B   2      16.947  12.524  18.7160  0.00  0.00     0.000 HD
BRANCH 17 30
ATOM     30  O4  BGC B   3      15.663  12.707  13.1140  0.00  0.00     0.000 O
BRANCH 30 34
ATOM     31  C1  BGC B   3      15.294   9.718  10.3100  0.00  0.00     0.000 C
ATOM     32  C2  BGC B   3      15.568   9.226  11.7310  0.00  0.00     0.000 C
ATOM     33  C3  BGC B   3      15.287  10.355  12.7050  0.00  0.00     0.000 C
ATOM     34  C4  BGC B   3      16.103  11.592  12.3310  0.00  0.00     0.000 C
ATOM     35  C5  BGC B   3      15.893  11.941  10.8680  0.00  0.00     0.000 C
ATOM     36  O5  BGC B   3      16.183  10.796  10.0590  0.00  0.00     0.000 O
ATOM     37   O  BGC B   3      14.695   8.140  12.0340  0.00  0.00     0.000 O
ATOM     39  HD  BGC B   3      15.147   8.001  12.7600  0.00  0.00     0.000 HD
ATOM     39   O  BGC B   3      15.618   9.914  14.0130  0.00  0.00     0.000 O
ATOM     41  HD  BGC B   3      16.069   9.775  14.7390  0.00  0.00     0.000 HD
ATOM     41   C  BGC B   3      16.742  13.110  10.3820  0.00  0.00     0.000 C
ATOM     42   O  BGC B   3      18.108  12.837  10.5850  0.00  0.00     0.000 O
ATOM     44  HD  BGC B   3      18.559  12.698  11.3110  0.00  0.00     0.000 HD
BRANCH 31 44
ATOM     44  O4  BGC B   4      15.662   8.685   9.4330  0.00  0.00     0.000 O
BRANCH 44 48
ATOM     45  C1  BGC B   4      14.687   7.176   5.7490  0.00  0.00     0.000 C
ATOM     46  C2  BGC B   4      15.607   8.388   5.7180  0.00  0.00     0.000 C
ATOM     47  C3  BGC B   4      16.201   8.603   7.0890  0.00  0.00     0.000 C
ATOM     48  C4  BGC B   4      15.091   8.695   8.1410  0.00  0.00     0.000 C
ATOM     49  C5  BGC B   4      14.149   7.490   8.0380  0.00  0.00     0.000 C
ATOM     50  O5  BGC B   4      13.641   7.384   6.7000  0.00  0.00     0.000 O
ATOM     51   O  BGC B   4      16.673   8.174   4.7730  0.00  0.00     0.000 O
ATOM     53  HD  BGC B   4      17.107   8.019   5.5060  0.00  0.00     0.000 HD
ATOM     53   O  BGC B   4      16.961   9.820   7.0780  0.00  0.00     0.000 O
ATOM     55  HD  BGC B   4      17.395   9.665   7.8110  0.00  0.00     0.000 HD
ATOM     55   C  BGC B   4      12.949   7.551   8.9650  0.00  0.00     0.000 C
ATOM     56   O  BGC B   4      12.264   8.779   8.7110  0.00  0.00     0.000 O
ATOM     58  HD  BGC B   4      12.698   8.623   9.4440  0.00  0.00     0.000 HD
BRANCH 45 58
ATOM     58  O4  BGC B   5      13.976   7.194   4.5110  0.00  0.00     0.000 O
BRANCH 58 62
ATOM     59  C1  BGC B   5      12.457   4.688   1.5850  0.00  0.00     0.000 C
ATOM     60  C2  BGC B   5      12.058   4.345   3.0060  0.00  0.00     0.000 C
ATOM     61  C3  BGC B   5      12.305   5.524   3.9280  0.00  0.00     0.000 C
ATOM     62  C4  BGC B   5      13.752   5.972   3.8030  0.00  0.00     0.000 C
ATOM     63  C5  BGC B   5      14.115   6.226   2.3330  0.00  0.00     0.000 C
ATOM     64  O5  BGC B   5      13.842   5.048   1.5810  0.00  0.00     0.000 O
ATOM     65   O  BGC B   5      16.313   5.485   2.6770  0.00  0.00     0.000 O
ATOM     67  HD  BGC B   5      16.896   5.366   3.3060  0.00  0.00     0.000 HD
ATOM     67   O  BGC B   5      16.313   5.485   2.6770  0.00  0.00     0.000 O
ATOM     69  HD  BGC B   5      16.896   5.366   3.3060  0.00  0.00     0.000 HD
ENDBRANCH 58 62
ENDBRANCH 45 58
ENDBRANCH 44 48
ENDBRANCH 31 44
ENDBRANCH 30 34
ENDBRANCH 17 30
ENDBRANCH 16 20
ENDBRANCH 1 16
TORSDOF 8
ENDMDL
MODEL 12
REMARK VINA RESULT:      -1.5     12.235     23.127
ROOT
ATOM      1  C1  BGC B   1      29.788  23.790   4.2170  0.00  0.00     0.000 C
ATOM      2  C2  BGC B   1      29.986  24.816   3.1030  0.00  0.00     0.000 C
ATOM      3  C3  BGC B   1      30.997  25.861   3.5310  0.00  0.00     0.000 C
ATOM      4  C4  BGC B   1      30.618  26.456   4.8820  0.00  0.00     0.000 C
ATOM      5  C5  BGC B   1      30.473  25.320   5.8840  0.00  0.00     0.000 C
ATOM      6  O5  BGC B   1      29.418  24.462   5.4130  0.00  0.00     0.000 O
ATOM      7   O  BGC B   1      30.467  24.147   1.9250  0.00  0.00     0.000 O
ATOM      9  HD  BGC B   1      30.951  24.605   1.3710  0.00  0.00     0.000 HD
ATOM      9   O  BGC B   1      31.064  26.879   2.5280  0.00  0.00     0.000 O
ATOM     11  HD  BGC B   1      31.548  27.337   1.9740  0.00  0.00     0.000 HD
ATOM     11   O  BGC B   1      31.627  27.346   5.3070  0.00  0.00     0.000 O
ATOM     13  HD  BGC B   1      32.110  27.804   4.7540  0.00  0.00     0.000 HD
ATOM     13   C  BGC B   1      30.142  25.759   7.3040  0.00  0.00     0.000 C
ATOM     14   O  BGC B   1      28.970  26.567   7.3620  0.00  0.00     0.000 O
ATOM     16  HD  BGC B   1      29.454  27.025   6.8080  0.00  0.00     0.000 HD
ENDROOT
BRANCH 1 16
ATOM     16  O4  BGC B   2      28.642  23.022   3.8520  0.00  0.00     0.000 O
BRANCH 16 20
ATOM     17  C1  BGC B   2      27.098  19.275   4.1840  0.00  0.00     0.000 C
ATOM     18  C2  BGC B   2      26.938  20.115   5.4420  0.00  0.00     0.000 C
ATOM     19  C3  BGC B   2      27.210  21.575   5.0880  0.00  0.00     0.000 C
ATOM     20  C4  BGC B   2      28.559  21.714   4.4120  0.00  0.00     0.000 C
ATOM     21  C5  BGC B   2      28.745  20.714   3.2700  0.00  0.00     0.000 C
ATOM     22  O5  BGC B   2      28.470  19.398   3.7670  0.00  0.00     0.000 O
ATOM     23   O  BGC B   2      25.599  19.996   5.9490  0.00  0.00     0.000 O
ATOM     25  HD  BGC B   2      26.015  20.609   5.5000  0.00  0.00     0.000 HD
ATOM     25   O  BGC B   2      27.163  22.376   6.2630  0.00  0.00     0.000 O
ATOM     27  HD  BGC B   2      27.579  22.988   5.8140  0.00  0.00     0.000 HD
ATOM     27   C  BGC B   2      30.160  20.712   2.7060  0.00  0.00     0.000 C
ATOM     28   O  BGC B   2      31.155  20.462   3.6860  0.00  0.00     0.000 O
ATOM     30  HD  BGC B   2      31.571  21.075   3.2370  0.00  0.00     0.000 HD
BRANCH 17 30
ATOM     30  O4  BGC B   3      26.950  17.922   4.5730  0.00  0.00     0.000 O
BRANCH 30 34
ATOM     31  C1  BGC B   3      25.537  14.354   3.0920  0.00  0.00     0.000 C
ATOM     32  C2  BGC B   3      26.831  14.843   2.4410  0.00  0.00     0.000 C
ATOM     33  C3  BGC B   3      27.447  15.917   3.3210  0.00  0.00     0.000 C
ATOM     34  C4  BGC B   3      26.439  17.038   3.5700  0.00  0.00     0.000 C
ATOM     35  C5  BGC B   3      25.128  16.466   4.0810  0.00  0.00     0.000 C
ATOM     36  O5  BGC B   3      24.659  15.465   3.1710  0.00  0.00     0.000 O
ATOM     37   O  BGC B   3      27.751  13.759   2.3400  0.00  0.00     0.000 O
ATOM     39  HD  BGC B   3      28.262  14.260   1.8520  0.00  0.00     0.000 HD
ATOM     39   O  BGC B   3      28.605  16.419   2.6720  0.00  0.00     0.000 O
ATOM     41  HD  BGC B   3      29.116  16.921   2.1840  0.00  0.00     0.000 HD
ATOM     41   C  BGC B   3      24.031  17.507   4.2710  0.00  0.00     0.000 C
ATOM     42   O  BGC B   3      23.784  18.180   3.0590  0.00  0.00     0.000 O
ATOM     44  HD  BGC B   3      24.294  18.681   2.5710  0.00  0.00     0.000 HD
BRANCH 31 44
ATOM     44  O4  BGC B   4      24.945  13.440   2.2040  0.00  0.00     0.000 O
BRANCH 44 48
ATOM     45  C1  BGC B   4      22.660  10.038   2.2800  0.00  0.00     0.000 C
ATOM     46  C2  BGC B   4      21.869  11.338   2.3210  0.00  0.00     0.000 C
ATOM     47  C3  BGC B   4      22.759  12.481   1.8970  0.00  0.00     0.000 C
ATOM     48  C4  BGC B   4      24.034  12.505   2.7450  0.00  0.00     0.000 C
ATOM     49  C5  BGC B   4      24.716  11.131   2.7340  0.00  0.00     0.000 C
ATOM     50  O5  BGC B   4      23.784  10.125   3.1570  0.00  0.00     0.000 O
ATOM     51   O  BGC B   4      20.745  11.261   1.4250  0.00  0.00     0.000 O
ATOM     53  HD  BGC B   4      21.274  11.743   0.9390  0.00  0.00     0.000 HD
ATOM     53   O  BGC B   4      22.042  13.712   2.0660  0.00  0.00     0.000 O
ATOM     55  HD  BGC B   4      22.571  14.195   1.5800  0.00  0.00     0.000 HD
ATOM     55   C  BGC B   4      25.928  11.024   3.6420  0.00  0.00     0.000 C
ATOM     56   O  BGC B   4      25.520  11.401   4.9590  0.00  0.00     0.000 O
ATOM     58  HD  BGC B   4      26.049  11.883   4.4720  0.00  0.00     0.000 HD
BRANCH 45 58
ATOM     58  O4  BGC B   5      21.844   9.064   2.9310  0.00  0.00     0.000 O
BRANCH 58 62
ATOM     59  C1  BGC B   5      21.597   5.008   3.7270  0.00  0.00     0.000 C
ATOM     60  C2  BGC B   5      22.807   5.711   4.3060  0.00  0.00     0.000 C
ATOM     61  C3  BGC B   5      22.594   7.213   4.3220  0.00  0.00     0.000 C
ATOM     62  C4  BGC B   5      22.236   7.690   2.9230  0.00  0.00     0.000 C
ATOM     63  C5  BGC B   5      21.055   6.884   2.3620  0.00  0.00     0.000 C
ATOM     64  O5  BGC B   5      21.384   5.499   2.3990  0.00  0.00     0.000 O
ATOM     65   O  BGC B   5      21.910   7.018   0.1830  0.00  0.00     0.000 O
ATOM     67  HD  BGC B   5      22.450   7.488  -0.3040  0.00  0.00     0.000 HD
ATOM     67   O  BGC B   5      21.910   7.018   0.1830  0.00  0.00     0.000 O
ATOM     69  HD  BGC B   5      22.450   7.488  -0.3040  0.00  0.00     0.000 HD
ENDBRANCH 58 62
ENDBRANCH 45 58
ENDBRANCH 44 48
ENDBRANCH 31 44
ENDBRANCH 30 34
ENDBRANCH 17 30
ENDBRANCH 16 20
ENDBRANCH 1 16
TORSDOF 8
ENDMDL
MODEL 13
REMARK VINA RESULT:      -1.5      9.082     19.774
ROOT
ATOM      1  C1  BGC B   1      26.802  18.901   8.8330  0.00  0.00     0.000 C
ATOM      2  C2  BGC B   1      27.184  18.661  10.2930  0.00  0.00     0.000 C
ATOM      3  C3  BGC B   1      28.016  19.819  10.8100  0.00  0.00     0.000 C
ATOM      4  C4  BGC B   1      29.192  20.094   9.8830  0.00  0.00     0.000 C
ATOM      5  C5  BGC B   1      28.654  20.327   8.4780  0.00  0.00     0.000 C
ATOM      6  O5  BGC B   1      27.980  19.122   8.0710  0.00  0.00     0.000 O
ATOM      7   O  BGC B   1      25.988  18.548  11.0830  0.00  0.00     0.000 O
ATOM      9  HD  BGC B   1      26.034  18.773  11.9180  0.00  0.00     0.000 HD
ATOM      9   O  BGC B   1      28.470  19.508  12.1310  0.00  0.00     0.000 O
ATOM     11  HD  BGC B   1      28.516  19.733  12.9660  0.00  0.00     0.000 HD
ATOM     11   O  BGC B   1      29.888  21.239  10.3270  0.00  0.00     0.000 O
ATOM     13  HD  BGC B   1      29.934  21.464  11.1610  0.00  0.00     0.000 HD
ATOM     13   C  BGC B   1      29.712  20.665   7.4370  0.00  0.00     0.000 C
ATOM     14   O  BGC B   1      30.741  19.683   7.3710  0.00  0.00     0.000 O
ATOM     16  HD  BGC B   1      30.787  19.908   8.2060  0.00  0.00     0.000 HD
ENDROOT
BRANCH 1 16
ATOM     16  O4  BGC B   2      26.274  17.666   8.3520  0.00  0.00     0.000 O
BRANCH 16 20
ATOM     17  C1  BGC B   2      23.319  16.159   6.0000  0.00  0.00     0.000 C
ATOM     18  C2  BGC B   2      24.436  16.837   5.2200  0.00  0.00     0.000 C
ATOM     19  C3  BGC B   2      25.631  17.028   6.1510  0.00  0.00     0.000 C
ATOM     20  C4  BGC B   2      25.212  17.764   7.4070  0.00  0.00     0.000 C
ATOM     21  C5  BGC B   2      23.967  17.154   8.0510  0.00  0.00     0.000 C
ATOM     22  O5  BGC B   2      22.939  17.059   7.0580  0.00  0.00     0.000 O
ATOM     23   O  BGC B   2      24.831  16.016   4.1080  0.00  0.00     0.000 O
ATOM     25  HD  BGC B   2      25.176  16.173   4.8870  0.00  0.00     0.000 HD
ATOM     25   O  BGC B   2      26.659  17.746   5.4780  0.00  0.00     0.000 O
ATOM     27  HD  BGC B   2      27.003  17.903   6.2570  0.00  0.00     0.000 HD
ATOM     27   C  BGC B   2      23.423  17.991   9.2020  0.00  0.00     0.000 C
ATOM     28   O  BGC B   2      23.127  19.328   8.8340  0.00  0.00     0.000 O
ATOM     30  HD  BGC B   2      23.472  19.485   9.6130  0.00  0.00     0.000 HD
BRANCH 17 30
ATOM     30  O4  BGC B   3      22.196  16.103   5.1410  0.00  0.00     0.000 O
BRANCH 30 34
ATOM     31  C1  BGC B   3      18.861  13.770   4.5380  0.00  0.00     0.000 C
ATOM     32  C2  BGC B   3      18.711  14.818   5.6400  0.00  0.00     0.000 C
ATOM     33  C3  BGC B   3      19.820  15.846   5.4940  0.00  0.00     0.000 C
ATOM     34  C4  BGC B   3      21.184  15.157   5.5020  0.00  0.00     0.000 C
ATOM     35  C5  BGC B   3      21.214  14.033   4.4810  0.00  0.00     0.000 C
ATOM     36  O5  BGC B   3      20.120  13.142   4.7220  0.00  0.00     0.000 O
ATOM     37   O  BGC B   3      17.458  15.483   5.4970  0.00  0.00     0.000 O
ATOM     39  HD  BGC B   3      17.590  15.861   6.2650  0.00  0.00     0.000 HD
ATOM     39   O  BGC B   3      19.719  16.771   6.5660  0.00  0.00     0.000 O
ATOM     41  HD  BGC B   3      19.852  17.149   7.3340  0.00  0.00     0.000 HD
ATOM     41   C  BGC B   3      22.509  13.229   4.4830  0.00  0.00     0.000 C
ATOM     42   O  BGC B   3      22.738  12.681   5.7600  0.00  0.00     0.000 O
ATOM     44  HD  BGC B   3      22.871  13.059   6.5270  0.00  0.00     0.000 HD
BRANCH 31 44
ATOM     44  O4  BGC B   4      17.886  12.785   4.7660  0.00  0.00     0.000 O
BRANCH 44 48
ATOM     45  C1  BGC B   4      15.443  10.205   2.7220  0.00  0.00     0.000 C
ATOM     46  C2  BGC B   4      16.907   9.791   2.7730  0.00  0.00     0.000 C
ATOM     47  C3  BGC B   4      17.613  10.575   3.8520  0.00  0.00     0.000 C
ATOM     48  C4  BGC B   4      17.402  12.078   3.6420  0.00  0.00     0.000 C
ATOM     49  C5  BGC B   4      15.909  12.397   3.4990  0.00  0.00     0.000 C
ATOM     50  O5  BGC B   4      15.342  11.603   2.4460  0.00  0.00     0.000 O
ATOM     51   O  BGC B   4      17.012   8.386   3.0680  0.00  0.00     0.000 O
ATOM     53  HD  BGC B   4      17.204   8.704   3.8500  0.00  0.00     0.000 HD
ATOM     53   O  BGC B   4      19.015  10.272   3.8010  0.00  0.00     0.000 O
ATOM     55  HD  BGC B   4      19.207  10.590   4.5830  0.00  0.00     0.000 HD
ATOM     55   C  BGC B   4      15.606  13.849   3.1710  0.00  0.00     0.000 C
ATOM     56   O  BGC B   4      16.335  14.190   1.9910  0.00  0.00     0.000 O
ATOM     58  HD  BGC B   4      16.527  14.509   2.7730  0.00  0.00     0.000 HD
BRANCH 45 58
ATOM     58  O4  BGC B   5      14.914   9.624   1.5300  0.00  0.00     0.000 O
BRANCH 58 62
ATOM     59  C1  BGC B   5      11.380   8.239  -0.1260  0.00  0.00     0.000 C
ATOM     60  C2  BGC B   5      11.302   9.607   0.5220  0.00  0.00     0.000 C
ATOM     61  C3  BGC B   5      12.691  10.185   0.7130  0.00  0.00     0.000 C
ATOM     62  C4  BGC B   5      13.548   9.201   1.4920  0.00  0.00     0.000 C
ATOM     63  C5  BGC B   5      13.521   7.816   0.8290  0.00  0.00     0.000 C
ATOM     64  O5  BGC B   5      12.168   7.388   0.7130  0.00  0.00     0.000 O
ATOM     65   O  BGC B   5      13.671   6.742   2.9080  0.00  0.00     0.000 O
ATOM     67  HD  BGC B   5      13.920   6.882   3.7250  0.00  0.00     0.000 HD
ATOM     67   O  BGC B   5      13.671   6.742   2.9080  0.00  0.00     0.000 O
ATOM     69  HD  BGC B   5      13.920   6.882   3.7250  0.00  0.00     0.000 HD
ENDBRANCH 58 62
ENDBRANCH 45 58
ENDBRANCH 44 48
ENDBRANCH 31 44
ENDBRANCH 30 34
ENDBRANCH 17 30
ENDBRANCH 16 20
ENDBRANCH 1 16
TORSDOF 8
ENDMDL
MODEL 14
REMARK VINA RESULT:      -1.3     10.645     13.754
ROOT
ATOM      1  C1  BGC B   1       3.126  12.039  18.1000  0.00  0.00     0.000 C
ATOM      2  C2  BGC B   1       3.062  11.214  19.3850  0.00  0.00     0.000 C
ATOM      3  C3  BGC B   1       2.226  11.935  20.4250  0.00  0.00     0.000 C
ATOM      4  C4  BGC B   1       2.715  13.366  20.6120  0.00  0.00     0.000 C
ATOM      5  C5  BGC B   1       2.709  14.059  19.2570  0.00  0.00     0.000 C
ATOM      6  O5  BGC B   1       3.615  13.338  18.4010  0.00  0.00     0.000 O
ATOM      7   O  BGC B   1       2.464   9.939  19.0990  0.00  0.00     0.000 O
ATOM      9  HD  BGC B   1       2.043   9.539  19.7410  0.00  0.00     0.000 HD
ATOM      9   O  BGC B   1       2.293  11.209  21.6560  0.00  0.00     0.000 O
ATOM     11  HD  BGC B   1       1.872  10.809  22.2980  0.00  0.00     0.000 HD
ATOM     11   O  BGC B   1       1.859  14.047  21.5040  0.00  0.00     0.000 O
ATOM     13  HD  BGC B   1       1.438  13.646  22.1460  0.00  0.00     0.000 HD
ATOM     13   C  BGC B   1       3.129  15.521  19.2850  0.00  0.00     0.000 C
ATOM     14   O  BGC B   1       4.409  15.706  19.8820  0.00  0.00     0.000 O
ATOM     16  HD  BGC B   1       3.988  15.306  20.5240  0.00  0.00     0.000 HD
ENDROOT
BRANCH 1 16
ATOM     16  O4  BGC B   2       4.137  11.439  17.2920  0.00  0.00     0.000 O
BRANCH 16 20
ATOM     17  C1  BGC B   2       5.118  10.804  13.3970  0.00  0.00     0.000 C
ATOM     18  C2  BGC B   2       5.458  12.202  13.8930  0.00  0.00     0.000 C
ATOM     19  C3  BGC B   2       5.391  12.205  15.4190  0.00  0.00     0.000 C
ATOM     20  C4  BGC B   2       4.049  11.684  15.8910  0.00  0.00     0.000 C
ATOM     21  C5  BGC B   2       3.666  10.366  15.2180  0.00  0.00     0.000 C
ATOM     22  O5  BGC B   2       3.762  10.533  13.7980  0.00  0.00     0.000 O
ATOM     23   O  BGC B   2       6.786  12.564  13.4800  0.00  0.00     0.000 O
ATOM     25  HD  BGC B   2       6.446  12.297  14.2300  0.00  0.00     0.000 HD
ATOM     25   O  BGC B   2       5.610  13.522  15.9110  0.00  0.00     0.000 O
ATOM     27  HD  BGC B   2       5.271  13.255  16.6610  0.00  0.00     0.000 HD
ATOM     27   C  BGC B   2       2.242   9.928  15.5380  0.00  0.00     0.000 C
ATOM     28   O  BGC B   2       1.266  10.901  15.2050  0.00  0.00     0.000 O
ATOM     30  HD  BGC B   2       0.926  10.634  15.9550  0.00  0.00     0.000 HD
BRANCH 17 30
ATOM     30  O4  BGC B   3       5.080  10.869  11.9840  0.00  0.00     0.000 O
BRANCH 30 34
ATOM     31  C1  BGC B   3       5.842   8.500   8.7080  0.00  0.00     0.000 C
ATOM     32  C2  BGC B   3       4.556   8.153   9.4570  0.00  0.00     0.000 C
ATOM     33  C3  BGC B   3       4.189   9.312  10.3660  0.00  0.00     0.000 C
ATOM     34  C4  BGC B   3       5.354   9.644  11.2970  0.00  0.00     0.000 C
ATOM     35  C5  BGC B   3       6.631   9.837  10.4970  0.00  0.00     0.000 C
ATOM     36  O5  BGC B   3       6.859   8.684   9.6810  0.00  0.00     0.000 O
ATOM     37   O  BGC B   3       3.498   7.960   8.5210  0.00  0.00     0.000 O
ATOM     39  HD  BGC B   3       3.004   7.662   9.1670  0.00  0.00     0.000 HD
ATOM     39   O  BGC B   3       3.038   8.950  11.1140  0.00  0.00     0.000 O
ATOM     41  HD  BGC B   3       2.543   8.652  11.7600  0.00  0.00     0.000 HD
ATOM     41   C  BGC B   3       7.867  10.083  11.3540  0.00  0.00     0.000 C
ATOM     42   O  BGC B   3       8.058   9.013  12.2500  0.00  0.00     0.000 O
ATOM     44  HD  BGC B   3       7.563   8.716  12.8960  0.00  0.00     0.000 HD
BRANCH 31 44
ATOM     44  O4  BGC B   4       6.206   7.369   7.9590  0.00  0.00     0.000 O
BRANCH 44 48
ATOM     45  C1  BGC B   4       8.587   6.346   4.7830  0.00  0.00     0.000 C
ATOM     46  C2  BGC B   4       9.298   6.378   6.1290  0.00  0.00     0.000 C
ATOM     47  C3  BGC B   4       8.274   6.372   7.2380  0.00  0.00     0.000 C
ATOM     48  C4  BGC B   4       7.271   7.513   7.0420  0.00  0.00     0.000 C
ATOM     49  C5  BGC B   4       6.677   7.470   5.6280  0.00  0.00     0.000 C
ATOM     50  O5  BGC B   4       7.734   7.484   4.6580  0.00  0.00     0.000 O
ATOM     51   O  BGC B   4      10.146   5.222   6.2670  0.00  0.00     0.000 O
ATOM     53  HD  BGC B   4       9.484   4.966   6.7630  0.00  0.00     0.000 HD
ATOM     53   O  BGC B   4       8.952   6.534   8.4930  0.00  0.00     0.000 O
ATOM     55  HD  BGC B   4       8.290   6.278   8.9890  0.00  0.00     0.000 HD
ATOM     55   C  BGC B   4       5.756   8.632   5.2990  0.00  0.00     0.000 C
ATOM     56   O  BGC B   4       6.481   9.841   5.5310  0.00  0.00     0.000 O
ATOM     58  HD  BGC B   4       5.819   9.585   6.0270  0.00  0.00     0.000 HD
BRANCH 45 58
ATOM     58  O4  BGC B   5       9.592   6.612   3.8050  0.00  0.00     0.000 O
BRANCH 58 62
ATOM     59  C1  BGC B   5      10.954   5.359   0.1010  0.00  0.00     0.000 C
ATOM     60  C2  BGC B   5       9.612   6.062   0.0960  0.00  0.00     0.000 C
ATOM     61  C3  BGC B   5       9.408   6.829   1.3880  0.00  0.00     0.000 C
ATOM     62  C4  BGC B   5       9.589   5.891   2.5700  0.00  0.00     0.000 C
ATOM     63  C5  BGC B   5      10.931   5.152   2.4740  0.00  0.00     0.000 C
ATOM     64  O5  BGC B   5      10.994   4.473   1.2240  0.00  0.00     0.000 O
ATOM     65   O  BGC B   5      10.021   3.230   3.4610  0.00  0.00     0.000 O
ATOM     67  HD  BGC B   5       9.363   2.973   3.9610  0.00  0.00     0.000 HD
ATOM     67   O  BGC B   5      10.021   3.230   3.4610  0.00  0.00     0.000 O
ATOM     69  HD  BGC B   5       9.363   2.973   3.9610  0.00  0.00     0.000 HD
ENDBRANCH 58 62
ENDBRANCH 45 58
ENDBRANCH 44 48
ENDBRANCH 31 44
ENDBRANCH 30 34
ENDBRANCH 17 30
ENDBRANCH 16 20
ENDBRANCH 1 16
TORSDOF 8
ENDMDL
MODEL 15
REMARK VINA RESULT:      -1.3     10.401     22.906
ROOT
ATOM      1  C1  BGC B   1      33.551  17.103  10.5600  0.00  0.00     0.000 C
ATOM      2  C2  BGC B   1      34.543  17.896   9.7100  0.00  0.00     0.000 C
ATOM      3  C3  BGC B   1      35.693  18.384  10.5700  0.00  0.00     0.000 C
ATOM      4  C4  BGC B   1      35.173  19.124  11.7960  0.00  0.00     0.000 C
ATOM      5  C5  BGC B   1      34.216  18.207  12.5430  0.00  0.00     0.000 C
ATOM      6  O5  BGC B   1      33.126  17.905  11.6530  0.00  0.00     0.000 O
ATOM      7   O  BGC B   1      35.057  17.048   8.6690  0.00  0.00     0.000 O
ATOM      9  HD  BGC B   1      35.848  17.222   8.3630  0.00  0.00     0.000 HD
ATOM      9   O  BGC B   1      36.533  19.231   9.7810  0.00  0.00     0.000 O
ATOM     11  HD  BGC B   1      37.324  19.405   9.4740  0.00  0.00     0.000 HD
ATOM     11   O  BGC B   1      36.254  19.475  12.6310  0.00  0.00     0.000 O
ATOM     13  HD  BGC B   1      37.045  19.648  12.3250  0.00  0.00     0.000 HD
ATOM     13   C  BGC B   1      33.645  18.789  13.8280  0.00  0.00     0.000 C
ATOM     14   O  BGC B   1      32.999  20.041  13.6150  0.00  0.00     0.000 O
ATOM     16  HD  BGC B   1      33.790  20.214  13.3090  0.00  0.00     0.000 HD
ENDROOT
BRANCH 1 16
ATOM     16  O4  BGC B   2      32.388  16.926   9.7540  0.00  0.00     0.000 O
BRANCH 16 20
ATOM     17  C1  BGC B   2      29.384  14.279   9.0440  0.00  0.00     0.000 C
ATOM     18  C2  BGC B   2      29.203  15.081  10.3250  0.00  0.00     0.000 C
ATOM     19  C3  BGC B   2      30.166  16.265  10.2960  0.00  0.00     0.000 C
ATOM     20  C4  BGC B   2      31.584  15.789  10.0540  0.00  0.00     0.000 C
ATOM     21  C5  BGC B   2      31.682  14.831   8.8650  0.00  0.00     0.000 C
ATOM     22  O5  BGC B   2      30.732  13.774   9.0510  0.00  0.00     0.000 O
ATOM     23   O  BGC B   2      27.855  15.573  10.4130  0.00  0.00     0.000 O
ATOM     25  HD  BGC B   2      28.611  15.938  10.2000  0.00  0.00     0.000 HD
ATOM     25   O  BGC B   2      30.089  16.981  11.5230  0.00  0.00     0.000 O
ATOM     27  HD  BGC B   2      30.845  17.347  11.3100  0.00  0.00     0.000 HD
ATOM     27   C  BGC B   2      33.060  14.197   8.7260  0.00  0.00     0.000 C
ATOM     28   O  BGC B   2      33.484  13.509   9.8910  0.00  0.00     0.000 O
ATOM     30  HD  BGC B   2      34.239  13.874   9.6790  0.00  0.00     0.000 HD
BRANCH 17 30
ATOM     30  O4  BGC B   3      28.560  13.134   9.1580  0.00  0.00     0.000 O
BRANCH 30 34
ATOM     31  C1  BGC B   3      26.358  10.591   6.7900  0.00  0.00     0.000 C
ATOM     32  C2  BGC B   3      27.872  10.440   6.6460  0.00  0.00     0.000 C
ATOM     33  C3  BGC B   3      28.547  11.119   7.8250  0.00  0.00     0.000 C
ATOM     34  C4  BGC B   3      28.096  12.576   7.9250  0.00  0.00     0.000 C
ATOM     35  C5  BGC B   3      26.580  12.661   7.9190  0.00  0.00     0.000 C
ATOM     36  O5  BGC B   3      26.069  11.980   6.7680  0.00  0.00     0.000 O
ATOM     37   O  BGC B   3      28.216   9.056   6.6650  0.00  0.00     0.000 O
ATOM     39  HD  BGC B   3      29.023   9.271   6.4380  0.00  0.00     0.000 HD
ATOM     39   O  BGC B   3      29.953  11.042   7.6430  0.00  0.00     0.000 O
ATOM     41  HD  BGC B   3      30.761  11.256   7.4160  0.00  0.00     0.000 HD
ATOM     41   C  BGC B   3      26.039  14.086   7.9240  0.00  0.00     0.000 C
ATOM     42   O  BGC B   3      26.532  14.796   6.8120  0.00  0.00     0.000 O
ATOM     44  HD  BGC B   3      27.339  15.011   6.5850  0.00  0.00     0.000 HD
BRANCH 31 44
ATOM     44  O4  BGC B   4      25.774  10.043   5.6360  0.00  0.00     0.000 O
BRANCH 44 48
ATOM     45  C1  BGC B   4      22.359   8.126   4.4250  0.00  0.00     0.000 C
ATOM     46  C2  BGC B   4      22.223   9.634   4.5800  0.00  0.00     0.000 C
ATOM     47  C3  BGC B   4      23.595  10.260   4.6360  0.00  0.00     0.000 C
ATOM     48  C4  BGC B   4      24.436   9.599   5.7330  0.00  0.00     0.000 C
ATOM     49  C5  BGC B   4      24.440   8.074   5.5640  0.00  0.00     0.000 C
ATOM     50  O5  BGC B   4      23.090   7.588   5.5280  0.00  0.00     0.000 O
ATOM     51   O  BGC B   4      21.502  10.182   3.4600  0.00  0.00     0.000 O
ATOM     53  HD  BGC B   4      22.306  10.404   3.2270  0.00  0.00     0.000 HD
ATOM     53   O  BGC B   4      23.453  11.660   4.9130  0.00  0.00     0.000 O
ATOM     55  HD  BGC B   4      24.257  11.883   4.6810  0.00  0.00     0.000 HD
ATOM     55   C  BGC B   4      25.153   7.322   6.6730  0.00  0.00     0.000 C
ATOM     56   O  BGC B   4      24.565   7.715   7.9140  0.00  0.00     0.000 O
ATOM     58  HD  BGC B   4      25.369   7.937   7.6820  0.00  0.00     0.000 HD
BRANCH 45 58
ATOM     58  O4  BGC B   5      21.053   7.591   4.6380  0.00  0.00     0.000 O
BRANCH 58 62
ATOM     59  C1  BGC B   5      18.984   4.008   4.8020  0.00  0.00     0.000 C
ATOM     60  C2  BGC B   5      19.917   4.274   5.9660  0.00  0.00     0.000 C
ATOM     61  C3  BGC B   5      20.291   5.743   6.0250  0.00  0.00     0.000 C
ATOM     62  C4  BGC B   5      20.865   6.175   4.6850  0.00  0.00     0.000 C
ATOM     63  C5  BGC B   5      19.909   5.806   3.5420  0.00  0.00     0.000 C
ATOM     64  O5  BGC B   5      19.644   4.408   3.5960  0.00  0.00     0.000 O
ATOM     65   O  BGC B   5      21.699   5.399   2.0840  0.00  0.00     0.000 O
ATOM     67  HD  BGC B   5      22.537   5.589   1.9720  0.00  0.00     0.000 HD
ATOM     67   O  BGC B   5      21.699   5.399   2.0840  0.00  0.00     0.000 O
ATOM     69  HD  BGC B   5      22.537   5.589   1.9720  0.00  0.00     0.000 HD
ENDBRANCH 58 62
ENDBRANCH 45 58
ENDBRANCH 44 48
ENDBRANCH 31 44
ENDBRANCH 30 34
ENDBRANCH 17 30
ENDBRANCH 16 20
ENDBRANCH 1 16
TORSDOF 8
ENDMDL
MODEL 16
REMARK VINA RESULT:      -1.3     10.634     23.845
ROOT
ATOM      1  C1  BGC B   1      36.409  12.407  12.1250  0.00  0.00     0.000 C
ATOM      2  C2  BGC B   1      37.771  12.520  11.4430  0.00  0.00     0.000 C
ATOM      3  C3  BGC B   1      38.843  12.835  12.4700  0.00  0.00     0.000 C
ATOM      4  C4  BGC B   1      38.448  14.046  13.3060  0.00  0.00     0.000 C
ATOM      5  C5  BGC B   1      37.086  13.779  13.9280  0.00  0.00     0.000 C
ATOM      6  O5  BGC B   1      36.148  13.600  12.8510  0.00  0.00     0.000 O
ATOM      7   O  BGC B   1      38.084  11.272  10.8010  0.00  0.00     0.000 O
ATOM      9  HD  BGC B   1      38.920  11.068  10.7040  0.00  0.00     0.000 HD
ATOM      9   O  BGC B   1      40.080  13.066  11.7900  0.00  0.00     0.000 O
ATOM     11  HD  BGC B   1      40.916  12.862  11.6930  0.00  0.00     0.000 HD
ATOM     11   O  BGC B   1      39.408  14.254  14.3190  0.00  0.00     0.000 O
ATOM     13  HD  BGC B   1      40.243  14.050  14.2220  0.00  0.00     0.000 HD
ATOM     13   C  BGC B   1      36.572  14.884  14.8390  0.00  0.00     0.000 C
ATOM     14   O  BGC B   1      36.531  16.149  14.1870  0.00  0.00     0.000 O
ATOM     16  HD  BGC B   1      37.367  15.945  14.0890  0.00  0.00     0.000 HD
ENDROOT
BRANCH 1 16
ATOM     16  O4  BGC B   2      35.440  12.390  11.0780  0.00  0.00     0.000 O
BRANCH 16 20
ATOM     17  C1  BGC B   2      31.795  10.843  10.1500  0.00  0.00     0.000 C
ATOM     18  C2  BGC B   2      31.731  12.042  11.0840  0.00  0.00     0.000 C
ATOM     19  C3  BGC B   2      33.086  12.745  11.0650  0.00  0.00     0.000 C
ATOM     20  C4  BGC B   2      34.196  11.765  11.3840  0.00  0.00     0.000 C
ATOM     21  C5  BGC B   2      34.105  10.489  10.5470  0.00  0.00     0.000 C
ATOM     22  O5  BGC B   2      32.786   9.946  10.6850  0.00  0.00     0.000 O
ATOM     23   O  BGC B   2      30.718  12.960  10.6410  0.00  0.00     0.000 O
ATOM     25  HD  BGC B   2      31.582  12.953  10.5850  0.00  0.00     0.000 HD
ATOM     25   O  BGC B   2      33.089  13.816  12.0020  0.00  0.00     0.000 O
ATOM     27  HD  BGC B   2      33.953  13.809  11.9470  0.00  0.00     0.000 HD
ATOM     27   C  BGC B   2      35.096   9.418  10.9860  0.00  0.00     0.000 C
ATOM     28   O  BGC B   2      34.973   9.066  12.3550  0.00  0.00     0.000 O
ATOM     30  HD  BGC B   2      35.837   9.058  12.2990  0.00  0.00     0.000 HD
BRANCH 17 30
ATOM     30  O4  BGC B   3      30.566  10.155  10.2810  0.00  0.00     0.000 O
BRANCH 30 34
ATOM     31  C1  BGC B   3      27.992   7.848   8.0500  0.00  0.00     0.000 C
ATOM     32  C2  BGC B   3      29.323   7.173   8.3820  0.00  0.00     0.000 C
ATOM     33  C3  BGC B   3      29.992   7.938   9.5100  0.00  0.00     0.000 C
ATOM     34  C4  BGC B   3      30.144   9.411   9.1330  0.00  0.00     0.000 C
ATOM     35  C5  BGC B   3      28.812   9.980   8.6760  0.00  0.00     0.000 C
ATOM     36  O5  BGC B   3      28.285   9.168   7.6210  0.00  0.00     0.000 O
ATOM     37   O  BGC B   3      29.082   5.839   8.8230  0.00  0.00     0.000 O
ATOM     39  HD  BGC B   3      29.935   5.692   8.7910  0.00  0.00     0.000 HD
ATOM     39   O  BGC B   3      31.261   7.352   9.7600  0.00  0.00     0.000 O
ATOM     41  HD  BGC B   3      32.114   7.206   9.7290  0.00  0.00     0.000 HD
ATOM     41   C  BGC B   3      28.887  11.423   8.1920  0.00  0.00     0.000 C
ATOM     42   O  BGC B   3      29.807  11.532   7.1320  0.00  0.00     0.000 O
ATOM     44  HD  BGC B   3      30.660  11.386   7.1000  0.00  0.00     0.000 HD
BRANCH 31 44
ATOM     44  O4  BGC B   4      27.453   7.177   6.9390  0.00  0.00     0.000 O
BRANCH 44 48
ATOM     45  C1  BGC B   4      23.819   6.115   5.3670  0.00  0.00     0.000 C
ATOM     46  C2  BGC B   4      24.262   7.535   5.0460  0.00  0.00     0.000 C
ATOM     47  C3  BGC B   4      25.739   7.677   5.3250  0.00  0.00     0.000 C
ATOM     48  C4  BGC B   4      26.053   7.240   6.7600  0.00  0.00     0.000 C
ATOM     49  C5  BGC B   4      25.485   5.843   7.0350  0.00  0.00     0.000 C
ATOM     50  O5  BGC B   4      24.080   5.824   6.7420  0.00  0.00     0.000 O
ATOM     51   O  BGC B   4      24.016   7.826   3.6570  0.00  0.00     0.000 O
ATOM     53  HD  BGC B   4      24.870   7.684   3.6180  0.00  0.00     0.000 HD
ATOM     53   O  BGC B   4      26.114   9.050   5.1430  0.00  0.00     0.000 O
ATOM     55  HD  BGC B   4      26.967   8.908   5.1050  0.00  0.00     0.000 HD
ATOM     55   C  BGC B   4      25.645   5.371   8.4690  0.00  0.00     0.000 C
ATOM     56   O  BGC B   4      25.057   6.357   9.3200  0.00  0.00     0.000 O
ATOM     58  HD  BGC B   4      25.911   6.215   9.2810  0.00  0.00     0.000 HD
BRANCH 45 58
ATOM     58  O4  BGC B   5      22.392   6.132   5.3290  0.00  0.00     0.000 O
BRANCH 58 62
ATOM     59  C1  BGC B   5      19.159   3.637   4.6430  0.00  0.00     0.000 C
ATOM     60  C2  BGC B   5      20.307   3.017   5.4140  0.00  0.00     0.000 C
ATOM     61  C3  BGC B   5      21.224   4.094   5.9630  0.00  0.00     0.000 C
ATOM     62  C4  BGC B   5      21.682   4.997   4.8290  0.00  0.00     0.000 C
ATOM     63  C5  BGC B   5      20.476   5.528   4.0390  0.00  0.00     0.000 C
ATOM     64  O5  BGC B   5      19.705   4.423   3.5790  0.00  0.00     0.000 O
ATOM     65   O  BGC B   5      21.691   5.501   2.0340  0.00  0.00     0.000 O
ATOM     67  HD  BGC B   5      22.504   5.504   1.7350  0.00  0.00     0.000 HD
ATOM     67   O  BGC B   5      21.691   5.501   2.0340  0.00  0.00     0.000 O
ATOM     69  HD  BGC B   5      22.504   5.504   1.7350  0.00  0.00     0.000 HD
ENDBRANCH 58 62
ENDBRANCH 45 58
ENDBRANCH 44 48
ENDBRANCH 31 44
ENDBRANCH 30 34
ENDBRANCH 17 30
ENDBRANCH 16 20
ENDBRANCH 1 16
TORSDOF 8
ENDMDL
MODEL 17
REMARK VINA RESULT:      -1.3      2.874     15.624
ROOT
ATOM      1  C1  BGC B   1      24.799   4.904   2.8420  0.00  0.00     0.000 C
ATOM      2  C2  BGC B   1      25.642   3.958   1.9890  0.00  0.00     0.000 C
ATOM      3  C3  BGC B   1      27.111   4.316   2.1110  0.00  0.00     0.000 C
ATOM      4  C4  BGC B   1      27.330   5.797   1.8250  0.00  0.00     0.000 C
ATOM      5  C5  BGC B   1      26.439   6.605   2.7570  0.00  0.00     0.000 C
ATOM      6  O5  BGC B   1      25.076   6.246   2.4670  0.00  0.00     0.000 O
ATOM      7   O  BGC B   1      25.445   2.609   2.4430  0.00  0.00     0.000 O
ATOM      9  HD  BGC B   1      26.091   2.045   2.3210  0.00  0.00     0.000 HD
ATOM      9   O  BGC B   1      27.862   3.505   1.2030  0.00  0.00     0.000 O
ATOM     11  HD  BGC B   1      28.507   2.941   1.0810  0.00  0.00     0.000 HD
ATOM     11   O  BGC B   1      28.684   6.127   2.0480  0.00  0.00     0.000 O
ATOM     13  HD  BGC B   1      29.330   5.562   1.9260  0.00  0.00     0.000 HD
ATOM     13   C  BGC B   1      26.581   8.115   2.6260  0.00  0.00     0.000 C
ATOM     14   O  BGC B   1      26.368   8.565   1.2920  0.00  0.00     0.000 O
ATOM     16  HD  BGC B   1      27.013   8.001   1.1700  0.00  0.00     0.000 HD
ENDROOT
BRANCH 1 16
ATOM     16  O4  BGC B   2      23.443   4.683   2.4590  0.00  0.00     0.000 O
BRANCH 16 20
ATOM     17  C1  BGC B   2      19.689   4.609   4.0210  0.00  0.00     0.000 C
ATOM     18  C2  BGC B   2      20.187   6.009   3.6940  0.00  0.00     0.000 C
ATOM     19  C3  BGC B   2      21.417   5.888   2.7980  0.00  0.00     0.000 C
ATOM     20  C4  BGC B   2      22.455   4.991   3.4400  0.00  0.00     0.000 C
ATOM     21  C5  BGC B   2      21.862   3.668   3.9240  0.00  0.00     0.000 C
ATOM     22  O5  BGC B   2      20.735   3.953   4.7620  0.00  0.00     0.000 O
ATOM     23   O  BGC B   2      19.169   6.746   2.9990  0.00  0.00     0.000 O
ATOM     25  HD  BGC B   2      19.893   6.345   2.7450  0.00  0.00     0.000 HD
ATOM     25   O  BGC B   2      21.965   7.178   2.5510  0.00  0.00     0.000 O
ATOM     27  HD  BGC B   2      22.690   6.778   2.2980  0.00  0.00     0.000 HD
ATOM     27   C  BGC B   2      22.847   2.838   4.7380  0.00  0.00     0.000 C
ATOM     28   O  BGC B   2      23.373   3.530   5.8590  0.00  0.00     0.000 O
ATOM     30  HD  BGC B   2      24.098   3.129   5.6060  0.00  0.00     0.000 HD
BRANCH 17 30
ATOM     30  O4  BGC B   3      18.623   4.758   4.9410  0.00  0.00     0.000 O
BRANCH 30 34
ATOM     31  C1  BGC B   3      15.016   3.016   5.8750  0.00  0.00     0.000 C
ATOM     32  C2  BGC B   3      16.177   2.033   5.7320  0.00  0.00     0.000 C
ATOM     33  C3  BGC B   3      17.484   2.804   5.7890  0.00  0.00     0.000 C
ATOM     34  C4  BGC B   3      17.494   3.905   4.7290  0.00  0.00     0.000 C
ATOM     35  C5  BGC B   3      16.242   4.756   4.8380  0.00  0.00     0.000 C
ATOM     36  O5  BGC B   3      15.086   3.913   4.7780  0.00  0.00     0.000 O
ATOM     37   O  BGC B   3      16.152   1.106   6.8160  0.00  0.00     0.000 O
ATOM     39  HD  BGC B   3      16.766   0.646   6.4150  0.00  0.00     0.000 HD
ATOM     39   O  BGC B   3      18.553   1.895   5.5790  0.00  0.00     0.000 O
ATOM     41  HD  BGC B   3      19.167   1.434   5.1780  0.00  0.00     0.000 HD
ATOM     41   C  BGC B   3      16.124   5.825   3.7570  0.00  0.00     0.000 C
ATOM     42   O  BGC B   3      16.151   5.231   2.4810  0.00  0.00     0.000 O
ATOM     44  HD  BGC B   3      16.765   4.770   2.0800  0.00  0.00     0.000 HD
BRANCH 31 44
ATOM     44  O4  BGC B   4      13.829   2.282   5.7150  0.00  0.00     0.000 O
BRANCH 44 48
ATOM     45  C1  BGC B   4       9.788   2.682   6.2810  0.00  0.00     0.000 C
ATOM     46  C2  BGC B   4      10.307   3.246   4.9660  0.00  0.00     0.000 C
ATOM     47  C3  BGC B   4      11.689   2.703   4.6960  0.00  0.00     0.000 C
ATOM     48  C4  BGC B   4      12.609   2.974   5.8910  0.00  0.00     0.000 C
ATOM     49  C5  BGC B   4      11.970   2.467   7.1890  0.00  0.00     0.000 C
ATOM     50  O5  BGC B   4      10.667   3.048   7.3470  0.00  0.00     0.000 O
ATOM     51   O  BGC B   4       9.433   2.864   3.8870  0.00  0.00     0.000 O
ATOM     53  HD  BGC B   4      10.073   2.297   3.7520  0.00  0.00     0.000 HD
ATOM     53   O  BGC B   4      12.216   3.343   3.5250  0.00  0.00     0.000 O
ATOM     55  HD  BGC B   4      12.856   2.775   3.3900  0.00  0.00     0.000 HD
ATOM     55   C  BGC B   4      12.756   2.795   8.4460  0.00  0.00     0.000 C
ATOM     56   O  BGC B   4      12.962   4.208   8.4750  0.00  0.00     0.000 O
ATOM     58  HD  BGC B   4      13.602   3.641   8.3400  0.00  0.00     0.000 HD
BRANCH 45 58
ATOM     58  O4  BGC B   5       8.612   3.428   6.5900  0.00  0.00     0.000 O
BRANCH 58 62
ATOM     59  C1  BGC B   5       4.752   2.033   7.1440  0.00  0.00     0.000 C
ATOM     60  C2  BGC B   5       5.224   3.061   8.1540  0.00  0.00     0.000 C
ATOM     61  C3  BGC B   5       6.445   3.796   7.6350  0.00  0.00     0.000 C
ATOM     62  C4  BGC B   5       7.520   2.790   7.2570  0.00  0.00     0.000 C
ATOM     63  C5  BGC B   5       6.958   1.732   6.2960  0.00  0.00     0.000 C
ATOM     64  O5  BGC B   5       5.825   1.117   6.9010  0.00  0.00     0.000 O
ATOM     65   O  BGC B   5       8.335   0.070   7.2120  0.00  0.00     0.000 O
ATOM     67  HD  BGC B   5       9.065  -0.029   7.6670  0.00  0.00     0.000 HD
ATOM     67   O  BGC B   5       8.335   0.070   7.2120  0.00  0.00     0.000 O
ATOM     69  HD  BGC B   5       9.065  -0.029   7.6670  0.00  0.00     0.000 HD
ENDBRANCH 58 62
ENDBRANCH 45 58
ENDBRANCH 44 48
ENDBRANCH 31 44
ENDBRANCH 30 34
ENDBRANCH 17 30
ENDBRANCH 16 20
ENDBRANCH 1 16
TORSDOF 8
ENDMDL
MODEL 18
REMARK VINA RESULT:      -1.3      9.390     21.040
ROOT
ATOM      1  C1  BGC B   1      33.002   6.058  14.6770  0.00  0.00     0.000 C
ATOM      2  C2  BGC B   1      33.604   4.873  15.4310  0.00  0.00     0.000 C
ATOM      3  C3  BGC B   1      34.644   5.360  16.4220  0.00  0.00     0.000 C
ATOM      4  C4  BGC B   1      35.663   6.260  15.7350  0.00  0.00     0.000 C
ATOM      5  C5  BGC B   1      34.918   7.394  15.0470  0.00  0.00     0.000 C
ATOM      6  O5  BGC B   1      34.046   6.803  14.0660  0.00  0.00     0.000 O
ATOM      7   O  BGC B   1      32.561   4.184  16.1400  0.00  0.00     0.000 O
ATOM      9  HD  BGC B   1      32.779   3.755  16.8600  0.00  0.00     0.000 HD
ATOM      9   O  BGC B   1      35.283   4.226  17.0150  0.00  0.00     0.000 O
ATOM     11  HD  BGC B   1      35.502   3.797  17.7350  0.00  0.00     0.000 HD
ATOM     11   O  BGC B   1      36.555   6.784  16.6950  0.00  0.00     0.000 O
ATOM     13  HD  BGC B   1      36.773   6.355  17.4140  0.00  0.00     0.000 HD
ATOM     13   C  BGC B   1      35.808   8.414  14.3510  0.00  0.00     0.000 C
ATOM     14   O  BGC B   1      36.687   7.812  13.4070  0.00  0.00     0.000 O
ATOM     16  HD  BGC B   1      36.905   7.382  14.1260  0.00  0.00     0.000 HD
ENDROOT
BRANCH 1 16
ATOM     16  O4  BGC B   2      32.257   5.504  13.5950  0.00  0.00     0.000 O
BRANCH 16 20
ATOM     17  C1  BGC B   2      28.916   6.154  11.3690  0.00  0.00     0.000 C
ATOM     18  C2  BGC B   2      30.078   7.068  11.0090  0.00  0.00     0.000 C
ATOM     19  C3  BGC B   2      31.352   6.500  11.6310  0.00  0.00     0.000 C
ATOM     20  C4  BGC B   2      31.165   6.287  13.1190  0.00  0.00     0.000 C
ATOM     21  C5  BGC B   2      29.879   5.524  13.4420  0.00  0.00     0.000 C
ATOM     22  O5  BGC B   2      28.782   6.189  12.8030  0.00  0.00     0.000 O
ATOM     23   O  BGC B   2      30.236   7.125   9.5810  0.00  0.00     0.000 O
ATOM     25  HD  BGC B   2      30.659   6.709  10.2120  0.00  0.00     0.000 HD
ATOM     25   O  BGC B   2      32.442   7.383  11.3920  0.00  0.00     0.000 O
ATOM     27  HD  BGC B   2      32.864   6.967  12.0230  0.00  0.00     0.000 HD
ATOM     27   C  BGC B   2      29.581   5.467  14.9350  0.00  0.00     0.000 C
ATOM     28   O  BGC B   2      29.508   6.747  15.5430  0.00  0.00     0.000 O
ATOM     30  HD  BGC B   2      29.931   6.331  16.1740  0.00  0.00     0.000 HD
BRANCH 17 30
ATOM     30  O4  BGC B   3      27.742   6.770  10.8740  0.00  0.00     0.000 O
BRANCH 30 34
ATOM     31  C1  BGC B   3      24.094   5.769   9.2560  0.00  0.00     0.000 C
ATOM     32  C2  BGC B   3      24.354   5.186  10.6440  0.00  0.00     0.000 C
ATOM     33  C3  BGC B   3      25.513   5.932  11.2820  0.00  0.00     0.000 C
ATOM     34  C4  BGC B   3      26.738   5.882  10.3710  0.00  0.00     0.000 C
ATOM     35  C5  BGC B   3      26.375   6.340   8.9690  0.00  0.00     0.000 C
ATOM     36  O5  BGC B   3      25.270   5.567   8.4880  0.00  0.00     0.000 O
ATOM     37   O  BGC B   3      23.198   5.367  11.4600  0.00  0.00     0.000 O
ATOM     39  HD  BGC B   3      23.561   4.858  12.0590  0.00  0.00     0.000 HD
ATOM     39   O  BGC B   3      25.796   5.334  12.5370  0.00  0.00     0.000 O
ATOM     41  HD  BGC B   3      26.160   4.826  13.1370  0.00  0.00     0.000 HD
ATOM     41   C  BGC B   3      27.519   6.235   7.9670  0.00  0.00     0.000 C
ATOM     42   O  BGC B   3      27.983   4.908   7.8970  0.00  0.00     0.000 O
ATOM     44  HD  BGC B   3      28.347   4.399   8.4970  0.00  0.00     0.000 HD
BRANCH 31 44
ATOM     44  O4  BGC B   4      23.089   4.991   8.6590  0.00  0.00     0.000 O
BRANCH 44 48
ATOM     45  C1  BGC B   4      19.909   5.328   6.0940  0.00  0.00     0.000 C
ATOM     46  C2  BGC B   4      21.276   5.417   5.4310  0.00  0.00     0.000 C
ATOM     47  C3  BGC B   4      22.329   4.896   6.3770  0.00  0.00     0.000 C
ATOM     48  C4  BGC B   4      22.245   5.627   7.7210  0.00  0.00     0.000 C
ATOM     49  C5  BGC B   4      20.815   5.578   8.2720  0.00  0.00     0.000 C
ATOM     50  O5  BGC B   4      19.901   6.099   7.2960  0.00  0.00     0.000 O
ATOM     51   O  BGC B   4      21.293   4.626   4.2270  0.00  0.00     0.000 O
ATOM     53  HD  BGC B   4      21.721   4.086   4.7520  0.00  0.00     0.000 HD
ATOM     53   O  BGC B   4      23.622   5.107   5.7910  0.00  0.00     0.000 O
ATOM     55  HD  BGC B   4      24.050   4.567   6.3160  0.00  0.00     0.000 HD
ATOM     55   C  BGC B   4      20.606   6.376   9.5470  0.00  0.00     0.000 C
ATOM     56   O  BGC B   4      21.030   7.717   9.2950  0.00  0.00     0.000 O
ATOM     58  HD  BGC B   4      21.458   7.178   9.8190  0.00  0.00     0.000 HD
BRANCH 45 58
ATOM     58  O4  BGC B   5      19.019   6.065   5.2570  0.00  0.00     0.000 O
BRANCH 58 62
ATOM     59  C1  BGC B   5      15.311   5.781   3.4340  0.00  0.00     0.000 C
ATOM     60  C2  BGC B   5      15.286   6.141   4.9060  0.00  0.00     0.000 C
ATOM     61  C3  BGC B   5      16.652   6.620   5.3600  0.00  0.00     0.000 C
ATOM     62  C4  BGC B   5      17.698   5.572   5.0170  0.00  0.00     0.000 C
ATOM     63  C5  BGC B   5      17.618   5.195   3.5300  0.00  0.00     0.000 C
ATOM     64  O5  BGC B   5      16.294   4.760   3.2370  0.00  0.00     0.000 O
ATOM     65   O  BGC B   5      18.232   2.979   3.9900  0.00  0.00     0.000 O
ATOM     67  HD  BGC B   5      18.629   2.498   4.5910  0.00  0.00     0.000 HD
ATOM     67   O  BGC B   5      18.232   2.979   3.9900  0.00  0.00     0.000 O
ATOM     69  HD  BGC B   5      18.629   2.498   4.5910  0.00  0.00     0.000 HD
ENDBRANCH 58 62
ENDBRANCH 45 58
ENDBRANCH 44 48
ENDBRANCH 31 44
ENDBRANCH 30 34
ENDBRANCH 17 30
ENDBRANCH 16 20
ENDBRANCH 1 16
TORSDOF 8
ENDMDL
MODEL 19
REMARK VINA RESULT:      -1.2     10.673     23.081
ROOT
ATOM      1  C1  BGC B   1      34.537  12.723  14.3000  0.00  0.00     0.000 C
ATOM      2  C2  BGC B   1      36.009  12.661  13.8970  0.00  0.00     0.000 C
ATOM      3  C3  BGC B   1      36.888  13.037  15.0740  0.00  0.00     0.000 C
ATOM      4  C4  BGC B   1      36.449  14.368  15.6710  0.00  0.00     0.000 C
ATOM      5  C5  BGC B   1      34.974  14.270  16.0340  0.00  0.00     0.000 C
ATOM      6  O5  BGC B   1      34.248  14.014  14.8180  0.00  0.00     0.000 O
ATOM      7   O  BGC B   1      36.329  11.324  13.4760  0.00  0.00     0.000 O
ATOM      9  HD  BGC B   1      37.147  11.056  13.5720  0.00  0.00     0.000 HD
ATOM      9   O  BGC B   1      38.248  13.100  14.6340  0.00  0.00     0.000 O
ATOM     11  HD  BGC B   1      39.066  12.833  14.7300  0.00  0.00     0.000 HD
ATOM     11   O  BGC B   1      37.211  14.644  16.8250  0.00  0.00     0.000 O
ATOM     13  HD  BGC B   1      38.029  14.377  16.9210  0.00  0.00     0.000 HD
ATOM     13   C  BGC B   1      34.394  15.513  16.6920  0.00  0.00     0.000 C
ATOM     14   O  BGC B   1      34.589  16.684  15.9050  0.00  0.00     0.000 O
ATOM     16  HD  BGC B   1      35.407  16.417  16.0000  0.00  0.00     0.000 HD
ENDROOT
BRANCH 1 16
ATOM     16  O4  BGC B   2      33.789  12.632  13.0890  0.00  0.00     0.000 O
BRANCH 16 20
ATOM     17  C1  BGC B   2      30.323  11.108  11.6050  0.00  0.00     0.000 C
ATOM     18  C2  BGC B   2      30.135  12.391  12.4020  0.00  0.00     0.000 C
ATOM     19  C3  BGC B   2      31.499  13.051  12.5860  0.00  0.00     0.000 C
ATOM     20  C4  BGC B   2      32.482  12.074  13.2000  0.00  0.00     0.000 C
ATOM     21  C5  BGC B   2      32.495  10.728  12.4740  0.00  0.00     0.000 C
ATOM     22  O5  BGC B   2      31.150  10.238  12.3990  0.00  0.00     0.000 O
ATOM     23   O  BGC B   2      29.269  13.292  11.6910  0.00  0.00     0.000 O
ATOM     25  HD  BGC B   2      30.127  13.255  11.8060  0.00  0.00     0.000 HD
ATOM     25   O  BGC B   2      31.372  14.204  13.4100  0.00  0.00     0.000 O
ATOM     27  HD  BGC B   2      32.229  14.167  13.5250  0.00  0.00     0.000 HD
ATOM     27   C  BGC B   2      33.333   9.676  13.1900  0.00  0.00     0.000 C
ATOM     28   O  BGC B   2      32.934   9.457  14.5330  0.00  0.00     0.000 O
ATOM     30  HD  BGC B   2      33.791   9.420  14.6480  0.00  0.00     0.000 HD
BRANCH 17 30
ATOM     30  O4  BGC B   3      29.060  10.471  11.5520  0.00  0.00     0.000 O
BRANCH 30 34
ATOM     31  C1  BGC B   3      26.874   7.997   9.0970  0.00  0.00     0.000 C
ATOM     32  C2  BGC B   3      28.116   7.349   9.7080  0.00  0.00     0.000 C
ATOM     33  C3  BGC B   3      28.593   8.201  10.8710  0.00  0.00     0.000 C
ATOM     34  C4  BGC B   3      28.831   9.638  10.4110  0.00  0.00     0.000 C
ATOM     35  C5  BGC B   3      27.607  10.171   9.6870  0.00  0.00     0.000 C
ATOM     36  O5  BGC B   3      27.257   9.278   8.6230  0.00  0.00     0.000 O
ATOM     37   O  BGC B   3      27.782   6.054  10.2030  0.00  0.00     0.000 O
ATOM     39  HD  BGC B   3      28.625   5.904  10.3320  0.00  0.00     0.000 HD
ATOM     39   O  BGC B   3      29.790   7.633  11.3820  0.00  0.00     0.000 O
ATOM     41  HD  BGC B   3      30.633   7.483  11.5110  0.00  0.00     0.000 HD
ATOM     41   C  BGC B   3      27.788  11.571   9.1110  0.00  0.00     0.000 C
ATOM     42   O  BGC B   3      28.879  11.592   8.2210  0.00  0.00     0.000 O
ATOM     44  HD  BGC B   3      29.723  11.442   8.3500  0.00  0.00     0.000 HD
BRANCH 31 44
ATOM     44  O4  BGC B   4      26.524   7.241   7.9670  0.00  0.00     0.000 O
BRANCH 44 48
ATOM     45  C1  BGC B   4      23.208   6.092   5.8470  0.00  0.00     0.000 C
ATOM     46  C2  BGC B   4      23.720   7.488   5.5230  0.00  0.00     0.000 C
ATOM     47  C3  BGC B   4      25.126   7.643   6.0490  0.00  0.00     0.000 C
ATOM     48  C4  BGC B   4      25.178   7.296   7.5400  0.00  0.00     0.000 C
ATOM     49  C5  BGC B   4      24.552   5.920   7.7950  0.00  0.00     0.000 C
ATOM     50  O5  BGC B   4      23.220   5.886   7.2610  0.00  0.00     0.000 O
ATOM     51   O  BGC B   4      23.726   7.693   4.0980  0.00  0.00     0.000 O
ATOM     53  HD  BGC B   4      24.571   7.547   4.2180  0.00  0.00     0.000 HD
ATOM     53   O  BGC B   4      25.545   9.002   5.8530  0.00  0.00     0.000 O
ATOM     55  HD  BGC B   4      26.391   8.856   5.9740  0.00  0.00     0.000 HD
ATOM     55   C  BGC B   4      24.452   5.538   9.2610  0.00  0.00     0.000 C
ATOM     56   O  BGC B   4      23.737   6.576   9.9330  0.00  0.00     0.000 O
ATOM     58  HD  BGC B   4      24.582   6.430  10.0540  0.00  0.00     0.000 HD
BRANCH 45 58
ATOM     58  O4  BGC B   5      21.811   6.110   5.5570  0.00  0.00     0.000 O
BRANCH 58 62
ATOM     59  C1  BGC B   5      18.726   3.558   4.5000  0.00  0.00     0.000 C
ATOM     60  C2  BGC B   5      19.757   2.975   5.4450  0.00  0.00     0.000 C
ATOM     61  C3  BGC B   5      20.579   4.079   6.0830  0.00  0.00     0.000 C
ATOM     62  C4  BGC B   5      21.187   4.952   4.9970  0.00  0.00     0.000 C
ATOM     63  C5  BGC B   5      20.102   5.445   4.0290  0.00  0.00     0.000 C
ATOM     64  O5  BGC B   5      19.412   4.318   3.4990  0.00  0.00     0.000 O
ATOM     65   O  BGC B   5      21.589   5.371   2.2180  0.00  0.00     0.000 O
ATOM     67  HD  BGC B   5      22.436   5.374   2.0370  0.00  0.00     0.000 HD
ATOM     67   O  BGC B   5      21.589   5.371   2.2180  0.00  0.00     0.000 O
ATOM     69  HD  BGC B   5      22.436   5.374   2.0370  0.00  0.00     0.000 HD
ENDBRANCH 58 62
ENDBRANCH 45 58
ENDBRANCH 44 48
ENDBRANCH 31 44
ENDBRANCH 30 34
ENDBRANCH 17 30
ENDBRANCH 16 20
ENDBRANCH 1 16
TORSDOF 8
ENDMDL
MODEL 20
REMARK VINA RESULT:      -1.1     11.298     16.844
ROOT
ATOM      1  C1  BGC B   1      18.410  16.011  18.8890  0.00  0.00     0.000 C
ATOM      2  C2  BGC B   1      19.691  16.581  19.4970  0.00  0.00     0.000 C
ATOM      3  C3  BGC B   1      19.369  17.348  20.7650  0.00  0.00     0.000 C
ATOM      4  C4  BGC B   1      18.275  18.377  20.5100  0.00  0.00     0.000 C
ATOM      5  C5  BGC B   1      17.067  17.660  19.9230  0.00  0.00     0.000 C
ATOM      6  O5  BGC B   1      17.482  17.066  18.6790  0.00  0.00     0.000 O
ATOM      7   O  BGC B   1      20.586  15.501  19.8120  0.00  0.00     0.000 O
ATOM      9  HD  BGC B   1      21.149  15.621  20.4590  0.00  0.00     0.000 HD
ATOM      9   O  BGC B   1      20.562  17.980  21.2390  0.00  0.00     0.000 O
ATOM     11  HD  BGC B   1      21.125  18.100  21.8860  0.00  0.00     0.000 HD
ATOM     11   O  BGC B   1      17.920  19.002  21.7240  0.00  0.00     0.000 O
ATOM     13  HD  BGC B   1      18.483  19.122  22.3710  0.00  0.00     0.000 HD
ATOM     13   C  BGC B   1      15.863  18.552  19.6560  0.00  0.00     0.000 C
ATOM     14   O  BGC B   1      16.183  19.659  18.8190  0.00  0.00     0.000 O
ATOM     16  HD  BGC B   1      16.746  19.778  19.4660  0.00  0.00     0.000 HD
ENDROOT
BRANCH 1 16
ATOM     16  O4  BGC B   2      18.758  15.556  17.5830  0.00  0.00     0.000 O
BRANCH 16 20
ATOM     17  C1  BGC B   2      17.860  12.662  14.8710  0.00  0.00     0.000 C
ATOM     18  C2  BGC B   2      16.790  13.738  14.9950  0.00  0.00     0.000 C
ATOM     19  C3  BGC B   2      17.385  14.929  15.7420  0.00  0.00     0.000 C
ATOM     20  C4  BGC B   2      17.976  14.483  17.0640  0.00  0.00     0.000 C
ATOM     21  C5  BGC B   2      18.901  13.275  16.9100  0.00  0.00     0.000 C
ATOM     22  O5  BGC B   2      18.194  12.246  16.2080  0.00  0.00     0.000 O
ATOM     23   O  BGC B   2      16.366  14.165  13.6900  0.00  0.00     0.000 O
ATOM     25  HD  BGC B   2      16.889  14.508  14.2890  0.00  0.00     0.000 HD
ATOM     25   O  BGC B   2      16.381  15.914  15.9590  0.00  0.00     0.000 O
ATOM     27  HD  BGC B   2      16.904  16.257  16.5580  0.00  0.00     0.000 HD
ATOM     27   C  BGC B   2      19.353  12.700  18.2460  0.00  0.00     0.000 C
ATOM     28   O  BGC B   2      18.276  12.335  19.0940  0.00  0.00     0.000 O
ATOM     30  HD  BGC B   2      18.799  12.677  19.6940  0.00  0.00     0.000 HD
BRANCH 17 30
ATOM     30  O4  BGC B   3      17.242  11.537  14.2770  0.00  0.00     0.000 O
BRANCH 30 34
ATOM     31  C1  BGC B   3      18.136   8.396  11.7740  0.00  0.00     0.000 C
ATOM     32  C2  BGC B   3      18.914   8.401  13.0890  0.00  0.00     0.000 C
ATOM     33  C3  BGC B   3      18.226   9.341  14.0630  0.00  0.00     0.000 C
ATOM     34  C4  BGC B   3      18.083  10.731  13.4460  0.00  0.00     0.000 C
ATOM     35  C5  BGC B   3      17.431  10.637  12.0770  0.00  0.00     0.000 C
ATOM     36  O5  BGC B   3      18.167   9.719  11.2610  0.00  0.00     0.000 O
ATOM     37   O  BGC B   3      18.911   7.089  13.6480  0.00  0.00     0.000 O
ATOM     39  HD  BGC B   3      19.489   7.356  14.2340  0.00  0.00     0.000 HD
ATOM     39   O  BGC B   3      18.998   9.398  15.2540  0.00  0.00     0.000 O
ATOM     41  HD  BGC B   3      19.577   9.664  15.8400  0.00  0.00     0.000 HD
ATOM     41   C  BGC B   3      17.331  11.971  11.3460  0.00  0.00     0.000 C
ATOM     42   O  BGC B   3      18.611  12.538  11.1930  0.00  0.00     0.000 O
ATOM     44  HD  BGC B   3      19.190  12.804  11.7800  0.00  0.00     0.000 HD
BRANCH 31 44
ATOM     44  O4  BGC B   4      18.855   7.600  10.8680  0.00  0.00     0.000 O
BRANCH 44 48
ATOM     45  C1  BGC B   4      18.242   5.007   7.7530  0.00  0.00     0.000 C
ATOM     46  C2  BGC B   4      18.101   6.479   7.3940  0.00  0.00     0.000 C
ATOM     47  C3  BGC B   4      18.721   7.323   8.4800  0.00  0.00     0.000 C
ATOM     48  C4  BGC B   4      18.124   6.959   9.8430  0.00  0.00     0.000 C
ATOM     49  C5  BGC B   4      18.213   5.447  10.0840  0.00  0.00     0.000 C
ATOM     50  O5  BGC B   4      17.591   4.745   8.9970  0.00  0.00     0.000 O
ATOM     51   O  BGC B   4      18.772   6.750   6.1480  0.00  0.00     0.000 O
ATOM     53  HD  BGC B   4      19.363   7.068   6.6940  0.00  0.00     0.000 HD
ATOM     53   O  BGC B   4      18.465   8.706   8.1940  0.00  0.00     0.000 O
ATOM     55  HD  BGC B   4      19.057   9.024   8.7400  0.00  0.00     0.000 HD
ATOM     55   C  BGC B   4      17.541   4.974  11.3600  0.00  0.00     0.000 C
ATOM     56   O  BGC B   4      16.185   5.424  11.3310  0.00  0.00     0.000 O
ATOM     58  HD  BGC B   4      16.777   5.743  11.8770  0.00  0.00     0.000 HD
BRANCH 45 58
ATOM     58  O4  BGC B   5      17.419   4.298   6.8270  0.00  0.00     0.000 O
BRANCH 58 62
ATOM     59  C1  BGC B   5      17.193   0.683   4.8190  0.00  0.00     0.000 C
ATOM     60  C2  BGC B   5      17.647   0.598   6.2620  0.00  0.00     0.000 C
ATOM     61  C3  BGC B   5      17.301   1.874   7.0060  0.00  0.00     0.000 C
ATOM     62  C4  BGC B   5      17.881   3.067   6.2640  0.00  0.00     0.000 C
ATOM     63  C5  BGC B   5      17.448   3.052   4.7910  0.00  0.00     0.000 C
ATOM     64  O5  BGC B   5      17.834   1.810   4.2110  0.00  0.00     0.000 O
ATOM     65   O  BGC B   5      19.487   3.989   4.1110  0.00  0.00     0.000 O
ATOM     67  HD  BGC B   5      20.154   4.451   4.4140  0.00  0.00     0.000 HD
ATOM     67   O  BGC B   5      19.487   3.989   4.1110  0.00  0.00     0.000 O
ATOM     69  HD  BGC B   5      20.154   4.451   4.4140  0.00  0.00     0.000 HD
ENDBRANCH 58 62
ENDBRANCH 45 58
ENDBRANCH 44 48
ENDBRANCH 31 44
ENDBRANCH 30 34
ENDBRANCH 17 30
ENDBRANCH 16 20
ENDBRANCH 1 16
TORSDOF 8
ENDMDL
MODEL 21
REMARK VINA RESULT:      -1.1     10.894     22.033
ROOT
ATOM      1  C1  BGC B   1      32.722  10.458  16.7580  0.00  0.00     0.000 C
ATOM      2  C2  BGC B   1      34.164  10.756  16.3490  0.00  0.00     0.000 C
ATOM      3  C3  BGC B   1      35.022  10.967  17.5820  0.00  0.00     0.000 C
ATOM      4  C4  BGC B   1      34.395  12.005  18.5040  0.00  0.00     0.000 C
ATOM      5  C5  BGC B   1      32.977  11.564  18.8330  0.00  0.00     0.000 C
ATOM      6  O5  BGC B   1      32.247  11.504  17.5930  0.00  0.00     0.000 O
ATOM      7   O  BGC B   1      34.681   9.646  15.5970  0.00  0.00     0.000 O
ATOM      9  HD  BGC B   1      35.536   9.508  15.6180  0.00  0.00     0.000 HD
ATOM      9   O  BGC B   1      36.330  11.374  17.1700  0.00  0.00     0.000 O
ATOM     11  HD  BGC B   1      37.185  11.236  17.1920  0.00  0.00     0.000 HD
ATOM     11   O  BGC B   1      35.154  12.106  19.6890  0.00  0.00     0.000 O
ATOM     13  HD  BGC B   1      36.009  11.969  19.7100  0.00  0.00     0.000 HD
ATOM     13   C  BGC B   1      32.229  12.481  19.7910  0.00  0.00     0.000 C
ATOM     14   O  BGC B   1      32.189  13.829  19.3320  0.00  0.00     0.000 O
ATOM     16  HD  BGC B   1      33.044  13.691  19.3540  0.00  0.00     0.000 HD
ENDROOT
BRANCH 1 16
ATOM     16  O4  BGC B   2      31.943  10.550  15.5670  0.00  0.00     0.000 O
BRANCH 16 20
ATOM     17  C1  BGC B   2      28.674   8.922  13.7780  0.00  0.00     0.000 C
ATOM     18  C2  BGC B   2      28.337   9.939  14.8590  0.00  0.00     0.000 C
ATOM     19  C3  BGC B   2      29.600  10.732  15.1900  0.00  0.00     0.000 C
ATOM     20  C4  BGC B   2      30.735   9.795  15.5470  0.00  0.00     0.000 C
ATOM     21  C5  BGC B   2      30.911   8.675  14.5210  0.00  0.00     0.000 C
ATOM     22  O5  BGC B   2      29.649   8.022  14.3370  0.00  0.00     0.000 O
ATOM     23   O  BGC B   2      27.324  10.843  14.3880  0.00  0.00     0.000 O
ATOM     25  HD  BGC B   2      28.182  10.907  14.4870  0.00  0.00     0.000 HD
ATOM     25   O  BGC B   2      29.342  11.626  16.2650  0.00  0.00     0.000 O
ATOM     27  HD  BGC B   2      30.200  11.691  16.3640  0.00  0.00     0.000 HD
ATOM     27   C  BGC B   2      31.919   7.620  14.9600  0.00  0.00     0.000 C
ATOM     28   O  BGC B   2      31.609   7.034  16.2140  0.00  0.00     0.000 O
ATOM     30  HD  BGC B   2      32.467   7.098  16.3130  0.00  0.00     0.000 HD
BRANCH 17 30
ATOM     30  O4  BGC B   3      27.515   8.135  13.5800  0.00  0.00     0.000 O
BRANCH 30 34
ATOM     31  C1  BGC B   3      25.536   6.143  10.5740  0.00  0.00     0.000 C
ATOM     32  C2  BGC B   3      26.851   5.495  11.0060  0.00  0.00     0.000 C
ATOM     33  C3  BGC B   3      27.265   6.073  12.3480  0.00  0.00     0.000 C
ATOM     34  C4  BGC B   3      27.345   7.596  12.2650  0.00  0.00     0.000 C
ATOM     35  C5  BGC B   3      26.057   8.163  11.6940  0.00  0.00     0.000 C
ATOM     36  O5  BGC B   3      25.776   7.535  10.4390  0.00  0.00     0.000 O
ATOM     37   O  BGC B   3      26.661   4.090  11.1580  0.00  0.00     0.000 O
ATOM     39  HD  BGC B   3      27.518   4.001  11.2480  0.00  0.00     0.000 HD
ATOM     39   O  BGC B   3      28.525   5.523  12.7040  0.00  0.00     0.000 O
ATOM     41  HD  BGC B   3      29.382   5.434  12.7930  0.00  0.00     0.000 HD
ATOM     41   C  BGC B   3      26.082   9.674  11.4900  0.00  0.00     0.000 C
ATOM     42   O  BGC B   3      27.145  10.032  10.6390  0.00  0.00     0.000 O
ATOM     44  HD  BGC B   3      28.002   9.943  10.7280  0.00  0.00     0.000 HD
BRANCH 31 44
ATOM     44  O4  BGC B   4      25.238   5.663   9.2880  0.00  0.00     0.000 O
BRANCH 44 48
ATOM     45  C1  BGC B   4      22.026   4.776   6.9010  0.00  0.00     0.000 C
ATOM     46  C2  BGC B   4      22.336   6.261   7.0280  0.00  0.00     0.000 C
ATOM     47  C3  BGC B   4      23.728   6.439   7.5820  0.00  0.00     0.000 C
ATOM     48  C4  BGC B   4      23.882   5.661   8.8930  0.00  0.00     0.000 C
ATOM     49  C5  BGC B   4      23.453   4.200   8.7060  0.00  0.00     0.000 C
ATOM     50  O5  BGC B   4      22.118   4.150   8.1820  0.00  0.00     0.000 O
ATOM     51   O  BGC B   4      22.260   6.892   5.7360  0.00  0.00     0.000 O
ATOM     53  HD  BGC B   4      23.121   6.834   5.8090  0.00  0.00     0.000 HD
ATOM     53   O  BGC B   4      23.957   7.835   7.8180  0.00  0.00     0.000 O
ATOM     55  HD  BGC B   4      24.818   7.777   7.8920  0.00  0.00     0.000 HD
ATOM     55   C  BGC B   4      23.460   3.376   9.9820  0.00  0.00     0.000 C
ATOM     56   O  BGC B   4      22.641   4.049  10.9390  0.00  0.00     0.000 O
ATOM     58  HD  BGC B   4      23.502   3.990  11.0130  0.00  0.00     0.000 HD
BRANCH 45 58
ATOM     58  O4  BGC B   5      20.628   4.691   6.6240  0.00  0.00     0.000 O
BRANCH 58 62
ATOM     59  C1  BGC B   5      17.872   2.649   4.3040  0.00  0.00     0.000 C
ATOM     60  C2  BGC B   5      18.643   1.801   5.2950  0.00  0.00     0.000 C
ATOM     61  C3  BGC B   5      19.294   2.674   6.3500  0.00  0.00     0.000 C
ATOM     62  C4  BGC B   5      20.150   3.734   5.6760  0.00  0.00     0.000 C
ATOM     63  C5  BGC B   5      19.331   4.504   4.6290  0.00  0.00     0.000 C
ATOM     64  O5  BGC B   5      18.781   3.575   3.7000  0.00  0.00     0.000 O
ATOM     65   O  BGC B   5      21.209   4.756   3.2480  0.00  0.00     0.000 O
ATOM     67  HD  BGC B   5      22.075   4.747   3.2740  0.00  0.00     0.000 HD
ATOM     67   O  BGC B   5      21.209   4.756   3.2480  0.00  0.00     0.000 O
ATOM     69  HD  BGC B   5      22.075   4.747   3.2740  0.00  0.00     0.000 HD
ENDBRANCH 58 62
ENDBRANCH 45 58
ENDBRANCH 44 48
ENDBRANCH 31 44
ENDBRANCH 30 34
ENDBRANCH 17 30
ENDBRANCH 16 20
ENDBRANCH 1 16
TORSDOF 8
ENDMDL
MODEL 22
REMARK VINA RESULT:      -1.0     11.067     24.819
ROOT
ATOM      1  C1  BGC B   1      39.587   6.038   8.8290  0.00  0.00     0.000 C
ATOM      2  C2  BGC B   1      40.196   5.121   9.8890  0.00  0.00     0.000 C
ATOM      3  C3  BGC B   1      41.562   5.636  10.3010  0.00  0.00     0.000 C
ATOM      4  C4  BGC B   1      42.442   5.867   9.0790  0.00  0.00     0.000 C
ATOM      5  C5  BGC B   1      41.711   6.806   8.1300  0.00  0.00     0.000 C
ATOM      6  O5  BGC B   1      40.489   6.155   7.7380  0.00  0.00     0.000 O
ATOM      7   O  BGC B   1      39.335   5.090  11.0390  0.00  0.00     0.000 O
ATOM      9  HD  BGC B   1      39.698   4.932  11.8100  0.00  0.00     0.000 HD
ATOM      9   O  BGC B   1      42.163   4.691  11.1910  0.00  0.00     0.000 O
ATOM     11  HD  BGC B   1      42.526   4.533  11.9610  0.00  0.00     0.000 HD
ATOM     11   O  BGC B   1      43.665   6.445   9.4790  0.00  0.00     0.000 O
ATOM     13  HD  BGC B   1      44.028   6.286  10.2490  0.00  0.00     0.000 HD
ATOM     13   C  BGC B   1      42.487   7.175   6.8740  0.00  0.00     0.000 C
ATOM     14   O  BGC B   1      42.910   6.029   6.1410  0.00  0.00     0.000 O
ATOM     16  HD  BGC B   1      43.273   5.870   6.9110  0.00  0.00     0.000 HD
ENDROOT
BRANCH 1 16
ATOM     16  O4  BGC B   2      38.457   5.344   8.3050  0.00  0.00     0.000 O
BRANCH 16 20
ATOM     17  C1  BGC B   2      34.731   6.003   6.8120  0.00  0.00     0.000 C
ATOM     18  C2  BGC B   2      35.849   6.324   5.8310  0.00  0.00     0.000 C
ATOM     19  C3  BGC B   2      37.144   5.705   6.3510  0.00  0.00     0.000 C
ATOM     20  C4  BGC B   2      37.413   6.156   7.7720  0.00  0.00     0.000 C
ATOM     21  C5  BGC B   2      36.193   5.987   8.6790  0.00  0.00     0.000 C
ATOM     22  O5  BGC B   2      35.073   6.634   8.0610  0.00  0.00     0.000 O
ATOM     23   O  BGC B   2      35.548   5.769   4.5400  0.00  0.00     0.000 O
ATOM     25  HD  BGC B   2      36.077   5.531   5.1830  0.00  0.00     0.000 HD
ATOM     25   O  BGC B   2      38.229   6.069   5.5050  0.00  0.00     0.000 O
ATOM     27  HD  BGC B   2      38.758   5.831   6.1480  0.00  0.00     0.000 HD
ATOM     27   C  BGC B   2      36.386   6.609  10.0560  0.00  0.00     0.000 C
ATOM     28   O  BGC B   2      36.722   7.986  10.0100  0.00  0.00     0.000 O
ATOM     30  HD  BGC B   2      37.251   7.748  10.6530  0.00  0.00     0.000 HD
BRANCH 17 30
ATOM     30  O4  BGC B   3      33.578   6.685   6.3570  0.00  0.00     0.000 O
BRANCH 30 34
ATOM     31  C1  BGC B   3      29.483   6.293   6.3330  0.00  0.00     0.000 C
ATOM     32  C2  BGC B   3      30.092   6.499   7.7190  0.00  0.00     0.000 C
ATOM     33  C3  BGC B   3      31.510   7.020   7.5600  0.00  0.00     0.000 C
ATOM     34  C4  BGC B   3      32.325   6.073   6.6800  0.00  0.00     0.000 C
ATOM     35  C5  BGC B   3      31.593   5.799   5.3780  0.00  0.00     0.000 C
ATOM     36  O5  BGC B   3      30.274   5.323   5.6650  0.00  0.00     0.000 O
ATOM     37   O  BGC B   3      29.332   7.471   8.4330  0.00  0.00     0.000 O
ATOM     39  HD  BGC B   3      29.783   7.275   9.1460  0.00  0.00     0.000 HD
ATOM     39   O  BGC B   3      32.094   7.135   8.8490  0.00  0.00     0.000 O
ATOM     41  HD  BGC B   3      32.545   6.939   9.5620  0.00  0.00     0.000 HD
ATOM     41   C  BGC B   3      32.293   4.790   4.4750  0.00  0.00     0.000 C
ATOM     42   O  BGC B   3      32.468   3.569   5.1550  0.00  0.00     0.000 O
ATOM     44  HD  BGC B   3      32.919   3.374   5.8680  0.00  0.00     0.000 HD
BRANCH 31 44
ATOM     44  O4  BGC B   4      28.216   5.716   6.5170  0.00  0.00     0.000 O
BRANCH 44 48
ATOM     45  C1  BGC B   4      24.475   5.685   4.8400  0.00  0.00     0.000 C
ATOM     46  C2  BGC B   4      25.510   4.843   4.1080  0.00  0.00     0.000 C
ATOM     47  C3  BGC B   4      26.700   4.614   5.0060  0.00  0.00     0.000 C
ATOM     48  C4  BGC B   4      27.243   5.952   5.5200  0.00  0.00     0.000 C
ATOM     49  C5  BGC B   4      26.120   6.782   6.1520  0.00  0.00     0.000 C
ATOM     50  O5  BGC B   4      25.046   6.940   5.2130  0.00  0.00     0.000 O
ATOM     51   O  BGC B   4      24.943   3.569   3.7460  0.00  0.00     0.000 O
ATOM     53  HD  BGC B   4      25.410   3.322   4.4320  0.00  0.00     0.000 HD
ATOM     53   O  BGC B   4      27.719   3.933   4.2590  0.00  0.00     0.000 O
ATOM     55  HD  BGC B   4      28.186   3.686   4.9450  0.00  0.00     0.000 HD
ATOM     55   C  BGC B   4      26.538   8.175   6.5870  0.00  0.00     0.000 C
ATOM     56   O  BGC B   4      27.106   8.833   5.4540  0.00  0.00     0.000 O
ATOM     58  HD  BGC B   4      27.574   8.585   6.1400  0.00  0.00     0.000 HD
BRANCH 45 58
ATOM     58  O4  BGC B   5      23.516   6.070   3.8560  0.00  0.00     0.000 O
BRANCH 58 62
ATOM     59  C1  BGC B   5      19.438   6.460   3.2480  0.00  0.00     0.000 C
ATOM     60  C2  BGC B   5      20.047   7.445   4.2260  0.00  0.00     0.000 C
ATOM     61  C3  BGC B   5      21.554   7.495   4.0630  0.00  0.00     0.000 C
ATOM     62  C4  BGC B   5      22.126   6.092   4.1900  0.00  0.00     0.000 C
ATOM     63  C5  BGC B   5      21.413   5.128   3.2310  0.00  0.00     0.000 C
ATOM     64  O5  BGC B   5      20.014   5.172   3.4900  0.00  0.00     0.000 O
ATOM     65   O  BGC B   5      21.627   3.353   4.7480  0.00  0.00     0.000 O
ATOM     67  HD  BGC B   5      22.096   3.098   5.4290  0.00  0.00     0.000 HD
ATOM     67   O  BGC B   5      21.627   3.353   4.7480  0.00  0.00     0.000 O
ATOM     69  HD  BGC B   5      22.096   3.098   5.4290  0.00  0.00     0.000 HD
ENDBRANCH 58 62
ENDBRANCH 45 58
ENDBRANCH 44 48
ENDBRANCH 31 44
ENDBRANCH 30 34
ENDBRANCH 17 30
ENDBRANCH 16 20
ENDBRANCH 1 16
TORSDOF 8
ENDMDL
MODEL 23
REMARK VINA RESULT:      -0.9      9.289     19.953
ROOT
ATOM      1  C1  BGC B   1      26.878  18.964   8.9000  0.00  0.00     0.000 C
ATOM      2  C2  BGC B   1      28.034  18.361   9.6980  0.00  0.00     0.000 C
ATOM      3  C3  BGC B   1      28.907  19.465  10.2640  0.00  0.00     0.000 C
ATOM      4  C4  BGC B   1      29.329  20.434   9.1680  0.00  0.00     0.000 C
ATOM      5  C5  BGC B   1      28.077  20.958   8.4790  0.00  0.00     0.000 C
ATOM      6  O5  BGC B   1      27.400  19.827   7.9000  0.00  0.00     0.000 O
ATOM      7   O  BGC B   1      27.504  17.576  10.7790  0.00  0.00     0.000 O
ATOM      9  HD  BGC B   1      27.991  17.488  11.4890  0.00  0.00     0.000 HD
ATOM      9   O  BGC B   1      30.050  18.875  10.8910  0.00  0.00     0.000 O
ATOM     11  HD  BGC B   1      30.537  18.787  11.6010  0.00  0.00     0.000 HD
ATOM     11   O  BGC B   1      30.049  21.507   9.7350  0.00  0.00     0.000 O
ATOM     13  HD  BGC B   1      30.537  21.419  10.4460  0.00  0.00     0.000 HD
ATOM     13   C  BGC B   1      28.332  21.983   7.3830  0.00  0.00     0.000 C
ATOM     14   O  BGC B   1      29.228  21.500   6.3870  0.00  0.00     0.000 O
ATOM     16  HD  BGC B   1      29.715  21.412   7.0980  0.00  0.00     0.000 HD
ENDROOT
BRANCH 1 16
ATOM     16  O4  BGC B   2      26.283  17.883   8.1850  0.00  0.00     0.000 O
BRANCH 16 20
ATOM     17  C1  BGC B   2      22.681  16.532   6.8640  0.00  0.00     0.000 C
ATOM     18  C2  BGC B   2      22.972  17.975   6.4790  0.00  0.00     0.000 C
ATOM     19  C3  BGC B   2      24.459  18.245   6.6980  0.00  0.00     0.000 C
ATOM     20  C4  BGC B   2      24.859  17.886   8.1140  0.00  0.00     0.000 C
ATOM     21  C5  BGC B   2      24.377  16.493   8.5200  0.00  0.00     0.000 C
ATOM     22  O5  BGC B   2      22.969  16.406   8.2700  0.00  0.00     0.000 O
ATOM     23   O  BGC B   2      22.654  18.190   5.0940  0.00  0.00     0.000 O
ATOM     25  HD  BGC B   2      23.397  18.075   5.5250  0.00  0.00     0.000 HD
ATOM     25   O  BGC B   2      24.745  19.615   6.4380  0.00  0.00     0.000 O
ATOM     27  HD  BGC B   2      25.488  19.500   6.8690  0.00  0.00     0.000 HD
ATOM     27   C  BGC B   2      24.605  16.192   9.9960  0.00  0.00     0.000 C
ATOM     28   O  BGC B   2      24.007  17.143  10.8630  0.00  0.00     0.000 O
ATOM     30  HD  BGC B   2      24.750  17.028  11.2940  0.00  0.00     0.000 HD
BRANCH 17 30
ATOM     30  O4  BGC B   3      21.282  16.353   6.7560  0.00  0.00     0.000 O
BRANCH 30 34
ATOM     31  C1  BGC B   3      18.559  13.427   5.7830  0.00  0.00     0.000 C
ATOM     32  C2  BGC B   3      19.629  12.991   6.7830  0.00  0.00     0.000 C
ATOM     33  C3  BGC B   3      20.302  14.227   7.3530  0.00  0.00     0.000 C
ATOM     34  C4  BGC B   3      20.855  15.095   6.2230  0.00  0.00     0.000 C
ATOM     35  C5  BGC B   3      19.774  15.371   5.1920  0.00  0.00     0.000 C
ATOM     36  O5  BGC B   3      19.218  14.132   4.7430  0.00  0.00     0.000 O
ATOM     37   O  BGC B   3      19.016  12.276   7.8540  0.00  0.00     0.000 O
ATOM     39  HD  BGC B   3      19.805  12.059   8.1390  0.00  0.00     0.000 HD
ATOM     39   O  BGC B   3      21.346  13.811   8.2210  0.00  0.00     0.000 O
ATOM     41  HD  BGC B   3      22.134  13.594   8.5060  0.00  0.00     0.000 HD
ATOM     41   C  BGC B   3      20.262  16.157   3.9800  0.00  0.00     0.000 C
ATOM     42   O  BGC B   3      21.318  15.472   3.3490  0.00  0.00     0.000 O
ATOM     44  HD  BGC B   3      22.106  15.254   3.6330  0.00  0.00     0.000 HD
BRANCH 31 44
ATOM     44  O4  BGC B   4      18.032  12.261   5.2040  0.00  0.00     0.000 O
BRANCH 44 48
ATOM     45  C1  BGC B   4      14.784  10.943   3.0780  0.00  0.00     0.000 C
ATOM     46  C2  BGC B   4      15.645  11.971   2.3560  0.00  0.00     0.000 C
ATOM     47  C3  BGC B   4      16.983  12.079   3.0450  0.00  0.00     0.000 C
ATOM     48  C4  BGC B   4      16.791  12.371   4.5370  0.00  0.00     0.000 C
ATOM     49  C5  BGC B   4      15.833  11.352   5.1660  0.00  0.00     0.000 C
ATOM     50  O5  BGC B   4      14.596  11.336   4.4380  0.00  0.00     0.000 O
ATOM     51   O  BGC B   4      15.851  11.569   0.9890  0.00  0.00     0.000 O
ATOM     53  HD  BGC B   4      16.619  11.340   1.3160  0.00  0.00     0.000 HD
ATOM     53   O  BGC B   4      17.731  13.141   2.4370  0.00  0.00     0.000 O
ATOM     55  HD  BGC B   4      18.500  12.912   2.7640  0.00  0.00     0.000 HD
ATOM     55   C  BGC B   4      15.489  11.628   6.6190  0.00  0.00     0.000 C
ATOM     56   O  BGC B   4      14.973  12.958   6.6990  0.00  0.00     0.000 O
ATOM     58  HD  BGC B   4      15.742  12.729   7.0270  0.00  0.00     0.000 HD
BRANCH 45 58
ATOM     58  O4  BGC B   5      13.470  11.085   2.5380  0.00  0.00     0.000 O
BRANCH 58 62
ATOM     59  C1  BGC B   5      10.414   8.749   1.0060  0.00  0.00     0.000 C
ATOM     60  C2  BGC B   5      10.325   9.045   2.4890  0.00  0.00     0.000 C
ATOM     61  C3  BGC B   5      11.220  10.213   2.8540  0.00  0.00     0.000 C
ATOM     62  C4  BGC B   5      12.638   9.933   2.3830  0.00  0.00     0.000 C
ATOM     63  C5  BGC B   5      12.650   9.563   0.8930  0.00  0.00     0.000 C
ATOM     64  O5  BGC B   5      11.778   8.456   0.6870  0.00  0.00     0.000 O
ATOM     65   O  BGC B   5      14.440   8.081   1.2050  0.00  0.00     0.000 O
ATOM     67  HD  BGC B   5      15.091   7.911   1.7500  0.00  0.00     0.000 HD
ATOM     67   O  BGC B   5      14.440   8.081   1.2050  0.00  0.00     0.000 O
ATOM     69  HD  BGC B   5      15.091   7.911   1.7500  0.00  0.00     0.000 HD
ENDBRANCH 58 62
ENDBRANCH 45 58
ENDBRANCH 44 48
ENDBRANCH 31 44
ENDBRANCH 30 34
ENDBRANCH 17 30
ENDBRANCH 16 20
ENDBRANCH 1 16
TORSDOF 8
ENDMDL
MODEL 24
REMARK VINA RESULT:      -0.9     10.770     16.600
ROOT
ATOM      1  C1  BGC B   1      18.353  15.406  18.1520  0.00  0.00     0.000 C
ATOM      2  C2  BGC B   1      19.532  15.368  19.1230  0.00  0.00     0.000 C
ATOM      3  C3  BGC B   1      19.355  16.422  20.1980  0.00  0.00     0.000 C
ATOM      4  C4  BGC B   1      19.087  17.787  19.5770  0.00  0.00     0.000 C
ATOM      5  C5  BGC B   1      17.883  17.669  18.6540  0.00  0.00     0.000 C
ATOM      6  O5  BGC B   1      18.221  16.720  17.6260  0.00  0.00     0.000 O
ATOM      7   O  BGC B   1      19.597  14.071  19.7370  0.00  0.00     0.000 O
ATOM      9  HD  BGC B   1      19.947  14.017  20.5270  0.00  0.00     0.000 HD
ATOM      9   O  BGC B   1      20.531  16.455  21.0120  0.00  0.00     0.000 O
ATOM     11  HD  BGC B   1      20.881  16.401  21.8020  0.00  0.00     0.000 HD
ATOM     11   O  BGC B   1      18.821  18.727  20.5950  0.00  0.00     0.000 O
ATOM     13  HD  BGC B   1      19.172  18.673  21.3850  0.00  0.00     0.000 HD
ATOM     13   C  BGC B   1      17.457  18.970  17.9900  0.00  0.00     0.000 C
ATOM     14   O  BGC B   1      18.521  19.585  17.2700  0.00  0.00     0.000 O
ATOM     16  HD  BGC B   1      18.871  19.531  18.0600  0.00  0.00     0.000 HD
ENDROOT
BRANCH 1 16
ATOM     16  O4  BGC B   2      18.727  14.596  17.0390  0.00  0.00     0.000 O
BRANCH 16 20
ATOM     17  C1  BGC B   2      17.161  12.013  14.3160  0.00  0.00     0.000 C
ATOM     18  C2  BGC B   2      16.858  13.474  14.0180  0.00  0.00     0.000 C
ATOM     19  C3  BGC B   2      17.780  14.344  14.8690  0.00  0.00     0.000 C
ATOM     20  C4  BGC B   2      17.660  13.969  16.3320  0.00  0.00     0.000 C
ATOM     21  C5  BGC B   2      17.784  12.462  16.5590  0.00  0.00     0.000 C
ATOM     22  O5  BGC B   2      16.848  11.794  15.7040  0.00  0.00     0.000 O
ATOM     23   O  BGC B   2      17.097  13.755  12.6290  0.00  0.00     0.000 O
ATOM     25  HD  BGC B   2      17.541  13.915  13.3550  0.00  0.00     0.000 HD
ATOM     25   O  BGC B   2      17.456  15.717  14.6850  0.00  0.00     0.000 O
ATOM     27  HD  BGC B   2      17.900  15.878  15.4110  0.00  0.00     0.000 HD
ATOM     27   C  BGC B   2      17.478  12.050  17.9930  0.00  0.00     0.000 C
ATOM     28   O  BGC B   2      16.197  12.466  18.4370  0.00  0.00     0.000 O
ATOM     30  HD  BGC B   2      16.641  12.627  19.1630  0.00  0.00     0.000 HD
BRANCH 17 30
ATOM     30  O4  BGC B   3      16.216  11.244  13.5970  0.00  0.00     0.000 O
BRANCH 30 34
ATOM     31  C1  BGC B   3      15.846   7.537  11.8510  0.00  0.00     0.000 C
ATOM     32  C2  BGC B   3      15.855   7.521  13.3800  0.00  0.00     0.000 C
ATOM     33  C3  BGC B   3      15.593   8.928  13.8880  0.00  0.00     0.000 C
ATOM     34  C4  BGC B   3      16.608   9.902  13.2920  0.00  0.00     0.000 C
ATOM     35  C5  BGC B   3      16.649   9.764  11.7800  0.00  0.00     0.000 C
ATOM     36  O5  BGC B   3      16.894   8.397  11.4330  0.00  0.00     0.000 O
ATOM     37   O  BGC B   3      14.814   6.669  13.8520  0.00  0.00     0.000 O
ATOM     39  HD  BGC B   3      15.139   6.742  14.6520  0.00  0.00     0.000 HD
ATOM     39   O  BGC B   3      15.680   8.918  15.3040  0.00  0.00     0.000 O
ATOM     41  HD  BGC B   3      16.006   8.991  16.1040  0.00  0.00     0.000 HD
ATOM     41   C  BGC B   3      17.703  10.636  11.1060  0.00  0.00     0.000 C
ATOM     42   O  BGC B   3      18.980  10.337  11.6180  0.00  0.00     0.000 O
ATOM     44  HD  BGC B   3      19.306  10.410  12.4170  0.00  0.00     0.000 HD
BRANCH 31 44
ATOM     44  O4  BGC B   4      16.192   6.246  11.4200  0.00  0.00     0.000 O
BRANCH 44 48
ATOM     45  C1  BGC B   4      15.452   3.621   8.3590  0.00  0.00     0.000 C
ATOM     46  C2  BGC B   4      16.403   4.758   8.0090  0.00  0.00     0.000 C
ATOM     47  C3  BGC B   4      16.900   5.407   9.2780  0.00  0.00     0.000 C
ATOM     48  C4  BGC B   4      15.718   5.836  10.1530  0.00  0.00     0.000 C
ATOM     49  C5  BGC B   4      14.757   4.662  10.3750  0.00  0.00     0.000 C
ATOM     50  O5  BGC B   4      14.346   4.127   9.1080  0.00  0.00     0.000 O
ATOM     51   O  BGC B   4      17.529   4.249   7.2690  0.00  0.00     0.000 O
ATOM     53  HD  BGC B   4      17.904   4.340   8.0440  0.00  0.00     0.000 HD
ATOM     53   O  BGC B   4      17.688   6.554   8.9310  0.00  0.00     0.000 O
ATOM     55  HD  BGC B   4      18.063   6.646   9.7070  0.00  0.00     0.000 HD
ATOM     55   C  BGC B   4      13.493   5.020  11.1360  0.00  0.00     0.000 C
ATOM     56   O  BGC B   4      12.859   6.098  10.4450  0.00  0.00     0.000 O
ATOM     58  HD  BGC B   4      13.235   6.190  11.2200  0.00  0.00     0.000 HD
BRANCH 45 58
ATOM     58  O4  BGC B   5      14.835   3.235   7.1320  0.00  0.00     0.000 O
BRANCH 58 62
ATOM     59  C1  BGC B   5      13.702  -0.127   4.9970  0.00  0.00     0.000 C
ATOM     60  C2  BGC B   5      12.762   0.281   6.1130  0.00  0.00     0.000 C
ATOM     61  C3  BGC B   5      13.032   1.711   6.5410  0.00  0.00     0.000 C
ATOM     62  C4  BGC B   5      14.500   1.864   6.9060  0.00  0.00     0.000 C
ATOM     63  C5  BGC B   5      15.397   1.359   5.7660  0.00  0.00     0.000 C
ATOM     64  O5  BGC B   5      15.046   0.012   5.4660  0.00  0.00     0.000 O
ATOM     65   O  BGC B   5      17.010   0.591   7.2830  0.00  0.00     0.000 O
ATOM     67  HD  BGC B   5      17.282   0.705   8.0980  0.00  0.00     0.000 HD
ATOM     67   O  BGC B   5      17.010   0.591   7.2830  0.00  0.00     0.000 O
ATOM     69  HD  BGC B   5      17.282   0.705   8.0980  0.00  0.00     0.000 HD
ENDBRANCH 58 62
ENDBRANCH 45 58
ENDBRANCH 44 48
ENDBRANCH 31 44
ENDBRANCH 30 34
ENDBRANCH 17 30
ENDBRANCH 16 20
ENDBRANCH 1 16
TORSDOF 8
ENDMDL
MODEL 25
REMARK VINA RESULT:      -0.9     11.508     15.882
ROOT
ATOM      1  C1  BGC B   1      15.818  14.991  19.4970  0.00  0.00     0.000 C
ATOM      2  C2  BGC B   1      16.949  15.522  20.3760  0.00  0.00     0.000 C
ATOM      3  C3  BGC B   1      16.378  16.196  21.6090  0.00  0.00     0.000 C
ATOM      4  C4  BGC B   1      15.334  17.234  21.2220  0.00  0.00     0.000 C
ATOM      5  C5  BGC B   1      14.273  16.555  20.3670  0.00  0.00     0.000 C
ATOM      6  O5  BGC B   1      14.927  16.054  19.1870  0.00  0.00     0.000 O
ATOM      7   O  BGC B   1      17.788  14.428  20.7800  0.00  0.00     0.000 O
ATOM      9  HD  BGC B   1      18.216  14.504  21.5300  0.00  0.00     0.000 HD
ATOM      9   O  BGC B   1      17.448  16.798  22.3440  0.00  0.00     0.000 O
ATOM     11  HD  BGC B   1      17.875  16.874  23.0940  0.00  0.00     0.000 HD
ATOM     11   O  BGC B   1      14.743  17.770  22.3860  0.00  0.00     0.000 O
ATOM     13  HD  BGC B   1      15.170  17.846  23.1350  0.00  0.00     0.000 HD
ATOM     13   C  BGC B   1      13.125  17.457  19.9370  0.00  0.00     0.000 C
ATOM     14   O  BGC B   1      13.578  18.623  19.2550  0.00  0.00     0.000 O
ATOM     16  HD  BGC B   1      14.005  18.699  20.0050  0.00  0.00     0.000 HD
ENDROOT
BRANCH 1 16
ATOM     16  O4  BGC B   2      16.416  14.632  18.2530  0.00  0.00     0.000 O
BRANCH 16 20
ATOM     17  C1  BGC B   2      16.108  11.932  15.2280  0.00  0.00     0.000 C
ATOM     18  C2  BGC B   2      15.009  12.984  15.2230  0.00  0.00     0.000 C
ATOM     19  C3  BGC B   2      15.425  14.124  16.1490  0.00  0.00     0.000 C
ATOM     20  C4  BGC B   2      15.771  13.591  17.5240  0.00  0.00     0.000 C
ATOM     21  C5  BGC B   2      16.737  12.407  17.4640  0.00  0.00     0.000 C
ATOM     22  O5  BGC B   2      16.197  11.423  16.5720  0.00  0.00     0.000 O
ATOM     23   O  BGC B   2      14.825  13.499  13.8940  0.00  0.00     0.000 O
ATOM     25  HD  BGC B   2      15.219  13.803  14.6030  0.00  0.00     0.000 HD
ATOM     25   O  BGC B   2      14.375  15.081  16.2410  0.00  0.00     0.000 O
ATOM     27  HD  BGC B   2      14.769  15.385  16.9490  0.00  0.00     0.000 HD
ATOM     27   C  BGC B   2      16.946  11.742  18.8180  0.00  0.00     0.000 C
ATOM     28   O  BGC B   2      15.739  11.305  19.4220  0.00  0.00     0.000 O
ATOM     30  HD  BGC B   2      16.133  11.609  20.1310  0.00  0.00     0.000 HD
BRANCH 17 30
ATOM     30  O4  BGC B   3      15.639  10.845  14.4530  0.00  0.00     0.000 O
BRANCH 30 34
ATOM     31  C1  BGC B   3      17.066   7.888  11.9740  0.00  0.00     0.000 C
ATOM     32  C2  BGC B   3      17.484   7.746  13.4370  0.00  0.00     0.000 C
ATOM     33  C3  BGC B   3      16.593   8.631  14.2910  0.00  0.00     0.000 C
ATOM     34  C4  BGC B   3      16.645  10.074  13.7890  0.00  0.00     0.000 C
ATOM     35  C5  BGC B   3      16.360  10.125  12.2980  0.00  0.00     0.000 C
ATOM     36  O5  BGC B   3      17.257   9.246  11.6110  0.00  0.00     0.000 O
ATOM     37   O  BGC B   3      17.308   6.393  13.8530  0.00  0.00     0.000 O
ATOM     39  HD  BGC B   3      17.724   6.583  14.5890  0.00  0.00     0.000 HD
ATOM     39   O  BGC B   3      17.038   8.553  15.6370  0.00  0.00     0.000 O
ATOM     41  HD  BGC B   3      17.455   8.742  16.3720  0.00  0.00     0.000 HD
ATOM     41   C  BGC B   3      16.481  11.519  11.6920  0.00  0.00     0.000 C
ATOM     42   O  BGC B   3      17.770  12.037  11.9190  0.00  0.00     0.000 O
ATOM     44  HD  BGC B   3      18.187  12.226  12.6540  0.00  0.00     0.000 HD
BRANCH 31 44
ATOM     44  O4  BGC B   4      17.973   7.138  11.2080  0.00  0.00     0.000 O
BRANCH 44 48
ATOM     45  C1  BGC B   4      18.145   4.890   7.7850  0.00  0.00     0.000 C
ATOM     46  C2  BGC B   4      18.037   6.391   7.5570  0.00  0.00     0.000 C
ATOM     47  C3  BGC B   4      18.375   7.119   8.8350  0.00  0.00     0.000 C
ATOM     48  C4  BGC B   4      17.506   6.603   9.9860  0.00  0.00     0.000 C
ATOM     49  C5  BGC B   4      17.591   5.075  10.0840  0.00  0.00     0.000 C
ATOM     50  O5  BGC B   4      17.247   4.489   8.8200  0.00  0.00     0.000 O
ATOM     51   O  BGC B   4      18.954   6.801   6.5260  0.00  0.00     0.000 O
ATOM     53  HD  BGC B   4      19.401   7.065   7.2190  0.00  0.00     0.000 HD
ATOM     53   O  BGC B   4      18.141   8.522   8.6430  0.00  0.00     0.000 O
ATOM     55  HD  BGC B   4      18.588   8.785   9.3360  0.00  0.00     0.000 HD
ATOM     55   C  BGC B   4      16.672   4.460  11.1240  0.00  0.00     0.000 C
ATOM     56   O  BGC B   4      15.341   4.898  10.8420  0.00  0.00     0.000 O
ATOM     58  HD  BGC B   4      15.788   5.161  11.5360  0.00  0.00     0.000 HD
BRANCH 45 58
ATOM     58  O4  BGC B   5      17.570   4.277   6.6310  0.00  0.00     0.000 O
BRANCH 58 62
ATOM     59  C1  BGC B   5      17.042   0.569   4.8650  0.00  0.00     0.000 C
ATOM     60  C2  BGC B   5      16.071   0.902   5.9800  0.00  0.00     0.000 C
ATOM     61  C3  BGC B   5      16.075   2.392   6.2620  0.00  0.00     0.000 C
ATOM     62  C4  BGC B   5      17.496   2.852   6.5470  0.00  0.00     0.000 C
ATOM     63  C5  BGC B   5      18.442   2.414   5.4200  0.00  0.00     0.000 C
ATOM     64  O5  BGC B   5      18.347   1.003   5.2610  0.00  0.00     0.000 O
ATOM     65   O  BGC B   5      20.211   2.114   6.9290  0.00  0.00     0.000 O
ATOM     67  HD  BGC B   5      20.477   2.356   7.7170  0.00  0.00     0.000 HD
ATOM     67   O  BGC B   5      20.211   2.114   6.9290  0.00  0.00     0.000 O
ATOM     69  HD  BGC B   5      20.477   2.356   7.7170  0.00  0.00     0.000 HD
ENDBRANCH 58 62
ENDBRANCH 45 58
ENDBRANCH 44 48
ENDBRANCH 31 44
ENDBRANCH 30 34
ENDBRANCH 17 30
ENDBRANCH 16 20
ENDBRANCH 1 16
TORSDOF 8
ENDMDL
MODEL 26
REMARK VINA RESULT:      -0.8     12.634     17.454
ROOT
ATOM      1  C1  BGC B   1      16.763  16.009  20.9200  0.00  0.00     0.000 C
ATOM      2  C2  BGC B   1      17.990  15.907  21.8250  0.00  0.00     0.000 C
ATOM      3  C3  BGC B   1      17.651  16.399  23.2190  0.00  0.00     0.000 C
ATOM      4  C4  BGC B   1      17.016  17.783  23.1630  0.00  0.00     0.000 C
ATOM      5  C5  BGC B   1      15.806  17.721  22.2420  0.00  0.00     0.000 C
ATOM      6  O5  BGC B   1      16.279  17.345  20.9350  0.00  0.00     0.000 O
ATOM      7   O  BGC B   1      18.411  14.535  21.8970  0.00  0.00     0.000 O
ATOM      9  HD  BGC B   1      18.826  14.278  22.6120  0.00  0.00     0.000 HD
ATOM      9   O  BGC B   1      18.846  16.418  24.0050  0.00  0.00     0.000 O
ATOM     11  HD  BGC B   1      19.260  16.161  24.7210  0.00  0.00     0.000 HD
ATOM     11   O  BGC B   1      16.614  18.172  24.4580  0.00  0.00     0.000 O
ATOM     13  HD  BGC B   1      17.029  17.916  25.1740  0.00  0.00     0.000 HD
ATOM     13   C  BGC B   1      15.030  19.024  22.1190  0.00  0.00     0.000 C
ATOM     14   O  BGC B   1      15.855  20.111  21.7100  0.00  0.00     0.000 O
ATOM     16  HD  BGC B   1      16.270  19.854  22.4260  0.00  0.00     0.000 HD
ENDROOT
BRANCH 1 16
ATOM     16  O4  BGC B   2      17.231  15.798  19.5890  0.00  0.00     0.000 O
BRANCH 16 20
ATOM     17  C1  BGC B   2      16.088  14.219  16.0200  0.00  0.00     0.000 C
ATOM     18  C2  BGC B   2      15.423  15.550  16.3410  0.00  0.00     0.000 C
ATOM     19  C3  BGC B   2      16.184  16.207  17.4910  0.00  0.00     0.000 C
ATOM     20  C4  BGC B   2      16.285  15.260  18.6690  0.00  0.00     0.000 C
ATOM     21  C5  BGC B   2      16.781  13.873  18.2610  0.00  0.00     0.000 C
ATOM     22  O5  BGC B   2      15.958  13.391  17.1910  0.00  0.00     0.000 O
ATOM     23   O  BGC B   2      15.466  16.413  15.1940  0.00  0.00     0.000 O
ATOM     25  HD  BGC B   2      15.921  16.376  15.9290  0.00  0.00     0.000 HD
ATOM     25   O  BGC B   2      15.529  17.409  17.8790  0.00  0.00     0.000 O
ATOM     27  HD  BGC B   2      15.984  17.372  18.6150  0.00  0.00     0.000 HD
ATOM     27   C  BGC B   2      16.708  12.858  19.3950  0.00  0.00     0.000 C
ATOM     28   O  BGC B   2      15.409  12.725  19.9480  0.00  0.00     0.000 O
ATOM     30  HD  BGC B   2      15.864  12.687  20.6830  0.00  0.00     0.000 HD
BRANCH 17 30
ATOM     30  O4  BGC B   3      15.292  13.592  15.0330  0.00  0.00     0.000 O
BRANCH 30 34
ATOM     31  C1  BGC B   3      15.674  11.053  11.8180  0.00  0.00     0.000 C
ATOM     32  C2  BGC B   3      15.958  10.407  13.1730  0.00  0.00     0.000 C
ATOM     33  C3  BGC B   3      15.406  11.302  14.2690  0.00  0.00     0.000 C
ATOM     34  C4  BGC B   3      15.985  12.711  14.1420  0.00  0.00     0.000 C
ATOM     35  C5  BGC B   3      15.794  13.236  12.7300  0.00  0.00     0.000 C
ATOM     36  O5  BGC B   3      16.347  12.302  11.7970  0.00  0.00     0.000 O
ATOM     37   O  BGC B   3      15.298   9.145  13.2470  0.00  0.00     0.000 O
ATOM     39  HD  BGC B   3      15.727   8.983  13.9820  0.00  0.00     0.000 HD
ATOM     39   O  BGC B   3      15.742  10.734  15.5260  0.00  0.00     0.000 O
ATOM     41  HD  BGC B   3      16.171  10.571  16.2610  0.00  0.00     0.000 HD
ATOM     41   C  BGC B   3      16.424  14.602  12.4870  0.00  0.00     0.000 C
ATOM     42   O  BGC B   3      17.803  14.558  12.7650  0.00  0.00     0.000 O
ATOM     44  HD  BGC B   3      18.231  14.396  13.5000  0.00  0.00     0.000 HD
BRANCH 31 44
ATOM     44  O4  BGC B   4      16.286  10.253  10.8400  0.00  0.00     0.000 O
BRANCH 44 48
ATOM     45  C1  BGC B   4      15.760   9.018   6.9660  0.00  0.00     0.000 C
ATOM     46  C2  BGC B   4      16.246  10.452   7.1180  0.00  0.00     0.000 C
ATOM     47  C3  BGC B   4      16.770  10.660   8.5170  0.00  0.00     0.000 C
ATOM     48  C4  BGC B   4      15.713  10.253   9.5480  0.00  0.00     0.000 C
ATOM     49  C5  BGC B   4      15.202   8.835   9.2650  0.00  0.00     0.000 C
ATOM     50  O5  BGC B   4      14.724   8.753   7.9140  0.00  0.00     0.000 O
ATOM     51   O  BGC B   4      17.302  10.718   6.1750  0.00  0.00     0.000 O
ATOM     53  HD  BGC B   4      17.779  10.612   6.8900  0.00  0.00     0.000 HD
ATOM     53   O  BGC B   4      17.102  12.046   8.6850  0.00  0.00     0.000 O
ATOM     55  HD  BGC B   4      17.579  11.941   9.4000  0.00  0.00     0.000 HD
ATOM     55   C  BGC B   4      14.065   8.386  10.1660  0.00  0.00     0.000 C
ATOM     56   O  BGC B   4      13.020   9.354  10.0630  0.00  0.00     0.000 O
ATOM     58  HD  BGC B   4      13.497   9.249  10.7780  0.00  0.00     0.000 HD
BRANCH 45 58
ATOM     58  O4  BGC B   5      15.053   8.973   5.7270  0.00  0.00     0.000 O
BRANCH 58 62
ATOM     59  C1  BGC B   5      13.442   6.191   3.1170  0.00  0.00     0.000 C
ATOM     60  C2  BGC B   5      13.515   5.756   4.5670  0.00  0.00     0.000 C
ATOM     61  C3  BGC B   5      13.716   6.956   5.4730  0.00  0.00     0.000 C
ATOM     62  C4  BGC B   5      14.939   7.736   5.0190  0.00  0.00     0.000 C
ATOM     63  C5  BGC B   5      14.840   8.077   3.5250  0.00  0.00     0.000 C
ATOM     64  O5  BGC B   5      14.658   6.871   2.7890  0.00  0.00     0.000 O
ATOM     65   O  BGC B   5      17.160   7.879   3.2560  0.00  0.00     0.000 O
ATOM     67  HD  BGC B   5      17.898   7.900   3.7090  0.00  0.00     0.000 HD
ATOM     67   O  BGC B   5      17.160   7.879   3.2560  0.00  0.00     0.000 O
ATOM     69  HD  BGC B   5      17.898   7.900   3.7090  0.00  0.00     0.000 HD
ENDBRANCH 58 62
ENDBRANCH 45 58
ENDBRANCH 44 48
ENDBRANCH 31 44
ENDBRANCH 30 34
ENDBRANCH 17 30
ENDBRANCH 16 20
ENDBRANCH 1 16
TORSDOF 8
ENDMDL
MODEL 27
REMARK VINA RESULT:      -0.8     14.408     17.205
ROOT
ATOM      1  C1  BGC B   1       5.414  24.037  10.5410  0.00  0.00     0.000 C
ATOM      2  C2  BGC B   1       6.149  25.025  11.4460  0.00  0.00     0.000 C
ATOM      3  C3  BGC B   1       5.164  25.722  12.3640  0.00  0.00     0.000 C
ATOM      4  C4  BGC B   1       4.015  26.325  11.5650  0.00  0.00     0.000 C
ATOM      5  C5  BGC B   1       3.378  25.223  10.7320  0.00  0.00     0.000 C
ATOM      6  O5  BGC B   1       4.387  24.721   9.8370  0.00  0.00     0.000 O
ATOM      7   O  BGC B   1       7.113  24.313  12.2390  0.00  0.00     0.000 O
ATOM      9  HD  BGC B   1       7.326  24.646  13.0100  0.00  0.00     0.000 HD
ATOM      9   O  BGC B   1       5.856  26.732  13.1040  0.00  0.00     0.000 O
ATOM     11  HD  BGC B   1       6.068  27.065  13.8740  0.00  0.00     0.000 HD
ATOM     11   O  BGC B   1       3.061  26.874  12.4480  0.00  0.00     0.000 O
ATOM     13  HD  BGC B   1       3.273  27.207  13.2180  0.00  0.00     0.000 HD
ATOM     13   C  BGC B   1       2.175  25.660   9.9080  0.00  0.00     0.000 C
ATOM     14   O  BGC B   1       2.474  26.759   9.0520  0.00  0.00     0.000 O
ATOM     16  HD  BGC B   1       2.687  27.092   9.8230  0.00  0.00     0.000 HD
ENDROOT
BRANCH 1 16
ATOM     16  O4  BGC B   2       6.351  23.641   9.5410  0.00  0.00     0.000 O
BRANCH 16 20
ATOM     17  C1  BGC B   2       7.392  20.462   7.2280  0.00  0.00     0.000 C
ATOM     18  C2  BGC B   2       6.116  21.156   6.7750  0.00  0.00     0.000 C
ATOM     19  C3  BGC B   2       6.030  22.514   7.4680  0.00  0.00     0.000 C
ATOM     20  C4  BGC B   2       6.151  22.350   8.9700  0.00  0.00     0.000 C
ATOM     21  C5  BGC B   2       7.347  21.484   9.3670  0.00  0.00     0.000 C
ATOM     22  O5  BGC B   2       7.273  20.247   8.6470  0.00  0.00     0.000 O
ATOM     23   O  BGC B   2       6.140  21.355   5.3520  0.00  0.00     0.000 O
ATOM     25  HD  BGC B   2       6.275  21.877   6.0300  0.00  0.00     0.000 HD
ATOM     25   O  BGC B   2       4.799  23.148   7.1400  0.00  0.00     0.000 O
ATOM     27  HD  BGC B   2       4.934  23.670   7.8180  0.00  0.00     0.000 HD
ATOM     27   C  BGC B   2       7.374  21.154  10.8540  0.00  0.00     0.000 C
ATOM     28   O  BGC B   2       6.190  20.521  11.3110  0.00  0.00     0.000 O
ATOM     30  HD  BGC B   2       6.325  21.043  11.9890  0.00  0.00     0.000 HD
BRANCH 17 30
ATOM     30  O4  BGC B   3       7.380  19.168   6.6560  0.00  0.00     0.000 O
BRANCH 30 34
ATOM     31  C1  BGC B   3       9.976  16.356   5.1470  0.00  0.00     0.000 C
ATOM     32  C2  BGC B   3      10.184  16.683   6.6250  0.00  0.00     0.000 C
ATOM     33  C3  BGC B   3       8.952  17.400   7.1470  0.00  0.00     0.000 C
ATOM     34  C4  BGC B   3       8.658  18.635   6.2960  0.00  0.00     0.000 C
ATOM     35  C5  BGC B   3       8.607  18.261   4.8240  0.00  0.00     0.000 C
ATOM     36  O5  BGC B   3       9.817  17.589   4.4620  0.00  0.00     0.000 O
ATOM     37   O  BGC B   3      10.348  15.473   7.3610  0.00  0.00     0.000 O
ATOM     39  HD  BGC B   3      10.571  15.943   8.0530  0.00  0.00     0.000 HD
ATOM     39   O  BGC B   3       9.184  17.768   8.4990  0.00  0.00     0.000 O
ATOM     41  HD  BGC B   3       9.408  18.238   9.1910  0.00  0.00     0.000 HD
ATOM     41   C  BGC B   3       8.409  19.450   3.8900  0.00  0.00     0.000 C
ATOM     42   O  BGC B   3       9.439  20.392   4.0780  0.00  0.00     0.000 O
ATOM     44  HD  BGC B   3       9.662  20.862   4.7700  0.00  0.00     0.000 HD
BRANCH 31 44
ATOM     44  O4  BGC B   4      11.171  15.789   4.6750  0.00  0.00     0.000 O
BRANCH 44 48
ATOM     45  C1  BGC B   4      12.529  13.057   1.9370  0.00  0.00     0.000 C
ATOM     46  C2  BGC B   4      12.030  14.365   1.3390  0.00  0.00     0.000 C
ATOM     47  C3  BGC B   4      11.935  15.409   2.4240  0.00  0.00     0.000 C
ATOM     48  C4  BGC B   4      11.079  14.894   3.5850  0.00  0.00     0.000 C
ATOM     49  C5  BGC B   4      11.585  13.527   4.0620  0.00  0.00     0.000 C
ATOM     50  O5  BGC B   4      11.630  12.614   2.9550  0.00  0.00     0.000 O
ATOM     51   O  BGC B   4      12.943  14.823   0.3240  0.00  0.00     0.000 O
ATOM     53  HD  BGC B   4      13.178  15.352   0.9680  0.00  0.00     0.000 HD
ATOM     53   O  BGC B   4      11.342  16.594   1.8740  0.00  0.00     0.000 O
ATOM     55  HD  BGC B   4      11.577  17.123   2.5180  0.00  0.00     0.000 HD
ATOM     55   C  BGC B   4      10.728  12.880   5.1350  0.00  0.00     0.000 C
ATOM     56   O  BGC B   4       9.390  12.805   4.6380  0.00  0.00     0.000 O
ATOM     58  HD  BGC B   4       9.625  13.333   5.2820  0.00  0.00     0.000 HD
BRANCH 45 58
ATOM     58  O4  BGC B   5      12.347  12.069   0.9230  0.00  0.00     0.000 O
BRANCH 58 62
ATOM     59  C1  BGC B   5      13.539   8.245  -0.1270  0.00  0.00     0.000 C
ATOM     60  C2  BGC B   5      12.474   8.321   0.9490  0.00  0.00     0.000 C
ATOM     61  C3  BGC B   5      11.825   9.692   0.9590  0.00  0.00     0.000 C
ATOM     62  C4  BGC B   5      12.897  10.761   1.0980  0.00  0.00     0.000 C
ATOM     63  C5  BGC B   5      13.985  10.579   0.0300  0.00  0.00     0.000 C
ATOM     64  O5  BGC B   5      14.513   9.261   0.1300  0.00  0.00     0.000 O
ATOM     65   O  BGC B   5      15.647  11.346   1.4950  0.00  0.00     0.000 O
ATOM     67  HD  BGC B   5      15.750  11.815   2.2150  0.00  0.00     0.000 HD
ATOM     67   O  BGC B   5      15.647  11.346   1.4950  0.00  0.00     0.000 O
ATOM     69  HD  BGC B   5      15.750  11.815   2.2150  0.00  0.00     0.000 HD
ENDBRANCH 58 62
ENDBRANCH 45 58
ENDBRANCH 44 48
ENDBRANCH 31 44
ENDBRANCH 30 34
ENDBRANCH 17 30
ENDBRANCH 16 20
ENDBRANCH 1 16
TORSDOF 8
ENDMDL
MODEL 28
REMARK VINA RESULT:      -0.7     12.809     17.322
ROOT
ATOM      1  C1  BGC B   1      17.126  14.625  21.8220  0.00  0.00     0.000 C
ATOM      2  C2  BGC B   1      18.173  14.394  22.9100  0.00  0.00     0.000 C
ATOM      3  C3  BGC B   1      17.673  14.934  24.2360  0.00  0.00     0.000 C
ATOM      4  C4  BGC B   1      17.215  16.380  24.0920  0.00  0.00     0.000 C
ATOM      5  C5  BGC B   1      16.170  16.446  22.9880  0.00  0.00     0.000 C
ATOM      6  O5  BGC B   1      16.800  16.007  21.7710  0.00  0.00     0.000 O
ATOM      7   O  BGC B   1      18.421  12.984  23.0370  0.00  0.00     0.000 O
ATOM      9  HD  BGC B   1      18.684  12.689  23.8070  0.00  0.00     0.000 HD
ATOM      9   O  BGC B   1      18.721  14.826  25.2040  0.00  0.00     0.000 O
ATOM     11  HD  BGC B   1      18.984  14.531  25.9750  0.00  0.00     0.000 HD
ATOM     11   O  BGC B   1      16.658  16.824  25.3090  0.00  0.00     0.000 O
ATOM     13  HD  BGC B   1      16.921  16.529  26.0800  0.00  0.00     0.000 HD
ATOM     13   C  BGC B   1      15.575  17.827  22.7540  0.00  0.00     0.000 C
ATOM     14   O  BGC B   1      16.572  18.810  22.4930  0.00  0.00     0.000 O
ATOM     16  HD  BGC B   1      16.835  18.515  23.2630  0.00  0.00     0.000 HD
ENDROOT
BRANCH 1 16
ATOM     16  O4  BGC B   2      17.775  14.350  20.5810  0.00  0.00     0.000 O
BRANCH 16 20
ATOM     17  C1  BGC B   2      17.041  12.834  16.8800  0.00  0.00     0.000 C
ATOM     18  C2  BGC B   2      16.540  14.258  17.0670  0.00  0.00     0.000 C
ATOM     19  C3  BGC B   2      17.181  14.836  18.3270  0.00  0.00     0.000 C
ATOM     20  C4  BGC B   2      16.932  13.926  19.5130  0.00  0.00     0.000 C
ATOM     21  C5  BGC B   2      17.274  12.467  19.2100  0.00  0.00     0.000 C
ATOM     22  O5  BGC B   2      16.586  12.075  18.0160  0.00  0.00     0.000 O
ATOM     23   O  BGC B   2      16.913  15.065  15.9380  0.00  0.00     0.000 O
ATOM     25  HD  BGC B   2      17.223  14.986  16.7430  0.00  0.00     0.000 HD
ATOM     25   O  BGC B   2      16.660  16.135  18.5840  0.00  0.00     0.000 O
ATOM     27  HD  BGC B   2      16.970  16.056  19.3890  0.00  0.00     0.000 HD
ATOM     27   C  BGC B   2      16.852  11.515  20.3230  0.00  0.00     0.000 C
ATOM     28   O  BGC B   2      15.472  11.595  20.6380  0.00  0.00     0.000 O
ATOM     30  HD  BGC B   2      15.781  11.517  21.4430  0.00  0.00     0.000 HD
BRANCH 17 30
ATOM     30  O4  BGC B   3      16.342  12.297  15.7730  0.00  0.00     0.000 O
BRANCH 30 34
ATOM     31  C1  BGC B   3      16.851   9.542  12.7600  0.00  0.00     0.000 C
ATOM     32  C2  BGC B   3      16.704   8.936  14.1560  0.00  0.00     0.000 C
ATOM     33  C3  BGC B   3      16.134   9.988  15.0900  0.00  0.00     0.000 C
ATOM     34  C4  BGC B   3      17.007  11.243  15.0690  0.00  0.00     0.000 C
ATOM     35  C5  BGC B   3      17.230  11.707  13.6410  0.00  0.00     0.000 C
ATOM     36  O5  BGC B   3      17.759  10.626  12.8660  0.00  0.00     0.000 O
ATOM     37   O  BGC B   3      15.795   7.838  14.1040  0.00  0.00     0.000 O
ATOM     39  HD  BGC B   3      16.016   7.639  14.9170  0.00  0.00     0.000 HD
ATOM     39   O  BGC B   3      16.073   9.442  16.3990  0.00  0.00     0.000 O
ATOM     41  HD  BGC B   3      16.294   9.242  17.2120  0.00  0.00     0.000 HD
ATOM     41   C  BGC B   3      18.168  12.903  13.5180  0.00  0.00     0.000 C
ATOM     42   O  BGC B   3      19.418  12.601  14.0910  0.00  0.00     0.000 O
ATOM     44  HD  BGC B   3      19.639  12.401  14.9040  0.00  0.00     0.000 HD
BRANCH 31 44
ATOM     44  O4  BGC B   4      17.474   8.576  11.9520  0.00  0.00     0.000 O
BRANCH 44 48
ATOM     45  C1  BGC B   4      17.559   7.282   8.0630  0.00  0.00     0.000 C
ATOM     46  C2  BGC B   4      18.355   8.552   8.3310  0.00  0.00     0.000 C
ATOM     47  C3  BGC B   4      18.575   8.704   9.8160  0.00  0.00     0.000 C
ATOM     48  C4  BGC B   4      17.238   8.644  10.5600  0.00  0.00     0.000 C
ATOM     49  C5  BGC B   4      16.453   7.389  10.1600  0.00  0.00     0.000 C
ATOM     50  O5  BGC B   4      16.299   7.349   8.7340  0.00  0.00     0.000 O
ATOM     51   O  BGC B   4      19.633   8.481   7.6700  0.00  0.00     0.000 O
ATOM     53  HD  BGC B   4      19.886   8.301   8.4790  0.00  0.00     0.000 HD
ATOM     53   O  BGC B   4      19.210   9.967  10.0610  0.00  0.00     0.000 O
ATOM     55  HD  BGC B   4      19.463   9.788  10.8700  0.00  0.00     0.000 HD
ATOM     55   C  BGC B   4      15.061   7.301  10.7600  0.00  0.00     0.000 C
ATOM     56   O  BGC B   4      14.360   8.495  10.4110  0.00  0.00     0.000 O
ATOM     58  HD  BGC B   4      14.613   8.316  11.2190  0.00  0.00     0.000 HD
BRANCH 45 58
ATOM     58  O4  BGC B   5      17.173   7.344   6.6900  0.00  0.00     0.000 O
BRANCH 58 62
ATOM     59  C1  BGC B   5      16.839   5.007   3.2880  0.00  0.00     0.000 C
ATOM     60  C2  BGC B   5      15.837   4.706   4.3840  0.00  0.00     0.000 C
ATOM     61  C3  BGC B   5      15.770   5.854   5.3740  0.00  0.00     0.000 C
ATOM     62  C4  BGC B   5      17.165   6.151   5.9020  0.00  0.00     0.000 C
ATOM     63  C5  BGC B   5      18.147   6.368   4.7420  0.00  0.00     0.000 C
ATOM     64  O5  BGC B   5      18.118   5.224   3.8940  0.00  0.00     0.000 O
ATOM     65   O  BGC B   5      19.904   5.405   5.9600  0.00  0.00     0.000 O
ATOM     67  HD  BGC B   5      20.146   5.228   6.7730  0.00  0.00     0.000 HD
ATOM     67   O  BGC B   5      19.904   5.405   5.9600  0.00  0.00     0.000 O
ATOM     69  HD  BGC B   5      20.146   5.228   6.7730  0.00  0.00     0.000 HD
ENDBRANCH 58 62
ENDBRANCH 45 58
ENDBRANCH 44 48
ENDBRANCH 31 44
ENDBRANCH 30 34
ENDBRANCH 17 30
ENDBRANCH 16 20
ENDBRANCH 1 16
TORSDOF 8
ENDMDL
MODEL 29
REMARK VINA RESULT:      -0.7     11.709     24.171
ROOT
ATOM      1  C1  BGC B   1      36.001  12.005  15.2110  0.00  0.00     0.000 C
ATOM      2  C2  BGC B   1      37.358  12.514  14.7280  0.00  0.00     0.000 C
ATOM      3  C3  BGC B   1      38.368  12.455  15.8580  0.00  0.00     0.000 C
ATOM      4  C4  BGC B   1      37.831  13.157  17.0990  0.00  0.00     0.000 C
ATOM      5  C5  BGC B   1      36.491  12.534  17.4630  0.00  0.00     0.000 C
ATOM      6  O5  BGC B   1      35.600  12.750  16.3530  0.00  0.00     0.000 O
ATOM      7   O  BGC B   1      37.813  11.689  13.6430  0.00  0.00     0.000 O
ATOM      9  HD  BGC B   1      38.668  11.618  13.5220  0.00  0.00     0.000 HD
ATOM      9   O  BGC B   1      39.588  13.059  15.4190  0.00  0.00     0.000 O
ATOM     11  HD  BGC B   1      40.443  12.988  15.2980  0.00  0.00     0.000 HD
ATOM     11   O  BGC B   1      38.741  12.998  18.1650  0.00  0.00     0.000 O
ATOM     13  HD  BGC B   1      39.596  12.927  18.0440  0.00  0.00     0.000 HD
ATOM     13   C  BGC B   1      35.844  13.100  18.7190  0.00  0.00     0.000 C
ATOM     14   O  BGC B   1      35.684  14.514  18.6570  0.00  0.00     0.000 O
ATOM     16  HD  BGC B   1      36.539  14.443  18.5370  0.00  0.00     0.000 HD
ENDROOT
BRANCH 1 16
ATOM     16  O4  BGC B   2      35.062  12.350  14.1940  0.00  0.00     0.000 O
BRANCH 16 20
ATOM     17  C1  BGC B   2      31.627  11.013  12.4760  0.00  0.00     0.000 C
ATOM     18  C2  BGC B   2      31.407  11.753  13.7870  0.00  0.00     0.000 C
ATOM     19  C3  BGC B   2      32.687  12.508  14.1390  0.00  0.00     0.000 C
ATOM     20  C4  BGC B   2      33.873  11.565  14.1460  0.00  0.00     0.000 C
ATOM     21  C5  BGC B   2      33.942  10.706  12.8830  0.00  0.00     0.000 C
ATOM     22  O5  BGC B   2      32.677  10.055  12.7040  0.00  0.00     0.000 O
ATOM     23   O  BGC B   2      30.329  12.693  13.6490  0.00  0.00     0.000 O
ATOM     25  HD  BGC B   2      31.191  12.772  13.6610  0.00  0.00     0.000 HD
ATOM     25   O  BGC B   2      32.546  13.133  15.4090  0.00  0.00     0.000 O
ATOM     27  HD  BGC B   2      33.409  13.212  15.4210  0.00  0.00     0.000 HD
ATOM     27   C  BGC B   2      35.013   9.625  12.9580  0.00  0.00     0.000 C
ATOM     28   O  BGC B   2      34.868   8.766  14.0770  0.00  0.00     0.000 O
ATOM     30  HD  BGC B   2      35.730   8.844  14.0890  0.00  0.00     0.000 HD
BRANCH 17 30
ATOM     30  O4  BGC B   3      30.465  10.239  12.2430  0.00  0.00     0.000 O
BRANCH 30 34
ATOM     31  C1  BGC B   3      28.248   8.737   9.1200  0.00  0.00     0.000 C
ATOM     32  C2  BGC B   3      29.647   8.135   9.2520  0.00  0.00     0.000 C
ATOM     33  C3  BGC B   3      30.193   8.460  10.6310  0.00  0.00     0.000 C
ATOM     34  C4  BGC B   3      30.163   9.969  10.8700  0.00  0.00     0.000 C
ATOM     35  C5  BGC B   3      28.778  10.522  10.5820  0.00  0.00     0.000 C
ATOM     36  O5  BGC B   3      28.379  10.142   9.2610  0.00  0.00     0.000 O
ATOM     37   O  BGC B   3      29.570   6.718   9.1180  0.00  0.00     0.000 O
ATOM     39  HD  BGC B   3      30.435   6.690   9.0900  0.00  0.00     0.000 HD
ATOM     39   O  BGC B   3      31.521   7.965  10.7170  0.00  0.00     0.000 O
ATOM     41  HD  BGC B   3      32.386   7.938  10.6890  0.00  0.00     0.000 HD
ATOM     41   C  BGC B   3      28.679  12.038  10.7070  0.00  0.00     0.000 C
ATOM     42   O  BGC B   3      29.598  12.658   9.8380  0.00  0.00     0.000 O
ATOM     44  HD  BGC B   3      30.463  12.630   9.8100  0.00  0.00     0.000 HD
BRANCH 31 44
ATOM     44  O4  BGC B   4      27.820   8.506   7.8020  0.00  0.00     0.000 O
BRANCH 44 48
ATOM     45  C1  BGC B   4      24.403   7.712   5.6800  0.00  0.00     0.000 C
ATOM     46  C2  BGC B   4      24.582   9.170   6.0800  0.00  0.00     0.000 C
ATOM     47  C3  BGC B   4      26.014   9.408   6.4900  0.00  0.00     0.000 C
ATOM     48  C4  BGC B   4      26.427   8.413   7.5790  0.00  0.00     0.000 C
ATOM     49  C5  BGC B   4      26.122   6.975   7.1400  0.00  0.00     0.000 C
ATOM     50  O5  BGC B   4      24.737   6.863   6.7790  0.00  0.00     0.000 O
ATOM     51   O  BGC B   4      24.262  10.029   4.9690  0.00  0.00     0.000 O
ATOM     53  HD  BGC B   4      25.126  10.065   4.9260  0.00  0.00     0.000 HD
ATOM     53   O  BGC B   4      26.136  10.748   6.9870  0.00  0.00     0.000 O
ATOM     55  HD  BGC B   4      27.001  10.784   6.9440  0.00  0.00     0.000 HD
ATOM     55   C  BGC B   4      26.390   5.924   8.2030  0.00  0.00     0.000 C
ATOM     56   O  BGC B   4      25.652   6.288   9.3710  0.00  0.00     0.000 O
ATOM     58  HD  BGC B   4      26.517   6.324   9.3280  0.00  0.00     0.000 HD
BRANCH 45 58
ATOM     58  O4  BGC B   5      22.996   7.509   5.5590  0.00  0.00     0.000 O
BRANCH 58 62
ATOM     59  C1  BGC B   5      20.161   5.561   3.2530  0.00  0.00     0.000 C
ATOM     60  C2  BGC B   5      21.239   4.675   3.8430  0.00  0.00     0.000 C
ATOM     61  C3  BGC B   5      21.954   5.389   4.9750  0.00  0.00     0.000 C
ATOM     62  C4  BGC B   5      22.482   6.726   4.4790  0.00  0.00     0.000 C
ATOM     63  C5  BGC B   5      21.358   7.540   3.8220  0.00  0.00     0.000 C
ATOM     64  O5  BGC B   5      20.776   6.764   2.7800  0.00  0.00     0.000 O
ATOM     65   O  BGC B   5      22.850   8.477   2.2750  0.00  0.00     0.000 O
ATOM     67  HD  BGC B   5      23.694   8.635   2.1580  0.00  0.00     0.000 HD
ATOM     67   O  BGC B   5      22.850   8.477   2.2750  0.00  0.00     0.000 O
ATOM     69  HD  BGC B   5      23.694   8.635   2.1580  0.00  0.00     0.000 HD
ENDBRANCH 58 62
ENDBRANCH 45 58
ENDBRANCH 44 48
ENDBRANCH 31 44
ENDBRANCH 30 34
ENDBRANCH 17 30
ENDBRANCH 16 20
ENDBRANCH 1 16
TORSDOF 8
ENDMDL
MODEL 30
REMARK VINA RESULT:      -0.7     12.640     18.206
ROOT
ATOM      1  C1  BGC B   1      19.107  15.352  21.4510  0.00  0.00     0.000 C
ATOM      2  C2  BGC B   1      20.128  15.146  22.5700  0.00  0.00     0.000 C
ATOM      3  C3  BGC B   1      19.533  15.564  23.9010  0.00  0.00     0.000 C
ATOM      4  C4  BGC B   1      18.958  16.972  23.8160  0.00  0.00     0.000 C
ATOM      5  C5  BGC B   1      17.953  17.015  22.6740  0.00  0.00     0.000 C
ATOM      6  O5  BGC B   1      18.666  16.702  21.4630  0.00  0.00     0.000 O
ATOM      7   O  BGC B   1      20.491  13.757  22.6290  0.00  0.00     0.000 O
ATOM      9  HD  BGC B   1      20.749  13.441  23.3930  0.00  0.00     0.000 HD
ATOM      9   O  BGC B   1      20.549  15.488  24.9050  0.00  0.00     0.000 O
ATOM     11  HD  BGC B   1      20.807  15.171  25.6690  0.00  0.00     0.000 HD
ATOM     11   O  BGC B   1      18.319  17.297  25.0310  0.00  0.00     0.000 O
ATOM     13  HD  BGC B   1      18.577  16.981  25.7950  0.00  0.00     0.000 HD
ATOM     13   C  BGC B   1      17.251  18.352  22.4900  0.00  0.00     0.000 C
ATOM     14   O  BGC B   1      18.169  19.429  22.3260  0.00  0.00     0.000 O
ATOM     16  HD  BGC B   1      18.427  19.113  23.0900  0.00  0.00     0.000 HD
ENDROOT
BRANCH 1 16
ATOM     16  O4  BGC B   2      19.824  15.205  20.2270  0.00  0.00     0.000 O
BRANCH 16 20
ATOM     17  C1  BGC B   2      19.401  13.763  16.4480  0.00  0.00     0.000 C
ATOM     18  C2  BGC B   2      18.711  15.100  16.6730  0.00  0.00     0.000 C
ATOM     19  C3  BGC B   2      19.234  15.703  17.9740  0.00  0.00     0.000 C
ATOM     20  C4  BGC B   2      19.075  14.720  19.1160  0.00  0.00     0.000 C
ATOM     21  C5  BGC B   2      19.616  13.332  18.7690  0.00  0.00     0.000 C
ATOM     22  O5  BGC B   2      19.019  12.904  17.5390  0.00  0.00     0.000 O
ATOM     23   O  BGC B   2      19.004  15.996  15.5880  0.00  0.00     0.000 O
ATOM     25  HD  BGC B   2      19.299  15.925  16.3990  0.00  0.00     0.000 HD
ATOM     25   O  BGC B   2      18.538  16.910  18.2630  0.00  0.00     0.000 O
ATOM     27  HD  BGC B   2      18.833  16.839  19.0740  0.00  0.00     0.000 HD
ATOM     27   C  BGC B   2      19.294  12.287  19.8300  0.00  0.00     0.000 C
ATOM     28   O  BGC B   2      17.906  12.171  20.1020  0.00  0.00     0.000 O
ATOM     30  HD  BGC B   2      18.201  12.100  20.9130  0.00  0.00     0.000 HD
BRANCH 17 30
ATOM     30  O4  BGC B   3      18.810  13.186  15.2990  0.00  0.00     0.000 O
BRANCH 30 34
ATOM     31  C1  BGC B   3      19.787  10.704  12.1660  0.00  0.00     0.000 C
ATOM     32  C2  BGC B   3      19.682  10.005  13.5210  0.00  0.00     0.000 C
ATOM     33  C3  BGC B   3      18.944  10.914  14.4880  0.00  0.00     0.000 C
ATOM     34  C4  BGC B   3      19.636  12.274  14.5660  0.00  0.00     0.000 C
ATOM     35  C5  BGC B   3      19.836  12.847  13.1740  0.00  0.00     0.000 C
ATOM     36  O5  BGC B   3      20.534  11.894  12.3640  0.00  0.00     0.000 O
ATOM     37   O  BGC B   3      18.936   8.798  13.3770  0.00  0.00     0.000 O
ATOM     39  HD  BGC B   3      19.157   8.584  14.1860  0.00  0.00     0.000 HD
ATOM     39   O  BGC B   3      18.918  10.290  15.7620  0.00  0.00     0.000 O
ATOM     41  HD  BGC B   3      19.140  10.076  16.5720  0.00  0.00     0.000 HD
ATOM     41   C  BGC B   3      20.604  14.164  13.1510  0.00  0.00     0.000 C
ATOM     42   O  BGC B   3      21.865  14.002  13.7540  0.00  0.00     0.000 O
ATOM     44  HD  BGC B   3      22.087  13.788  14.5640  0.00  0.00     0.000 HD
BRANCH 31 44
ATOM     44  O4  BGC B   4      20.562   9.881  11.3330  0.00  0.00     0.000 O
BRANCH 44 48
ATOM     45  C1  BGC B   4      20.920   8.798   7.3950  0.00  0.00     0.000 C
ATOM     46  C2  BGC B   4      21.486  10.170   7.7340  0.00  0.00     0.000 C
ATOM     47  C3  BGC B   4      21.657  10.289   9.2280  0.00  0.00     0.000 C
ATOM     48  C4  BGC B   4      20.338   9.972   9.9410  0.00  0.00     0.000 C
ATOM     49  C5  BGC B   4      19.782   8.622   9.4690  0.00  0.00     0.000 C
ATOM     50  O5  BGC B   4      19.657   8.622   8.0400  0.00  0.00     0.000 O
ATOM     51   O  BGC B   4      22.768  10.345   7.0990  0.00  0.00     0.000 O
ATOM     53  HD  BGC B   4      23.036  10.174   7.9050  0.00  0.00     0.000 HD
ATOM     53   O  BGC B   4      22.066  11.628   9.5420  0.00  0.00     0.000 O
ATOM     55  HD  BGC B   4      22.334  11.457  10.3470  0.00  0.00     0.000 HD
ATOM     55   C  BGC B   4      18.417   8.274  10.0340  0.00  0.00     0.000 C
ATOM     56   O  BGC B   4      17.529   9.349   9.7210  0.00  0.00     0.000 O
ATOM     58  HD  BGC B   4      17.797   9.177  10.5270  0.00  0.00     0.000 HD
BRANCH 45 58
ATOM     58  O4  BGC B   5      20.550   8.857   6.0180  0.00  0.00     0.000 O
BRANCH 58 62
ATOM     59  C1  BGC B   5      20.894   6.752   2.4690  0.00  0.00     0.000 C
ATOM     60  C2  BGC B   5      19.892   6.196   3.4600  0.00  0.00     0.000 C
ATOM     61  C3  BGC B   5      19.544   7.237   4.5060  0.00  0.00     0.000 C
ATOM     62  C4  BGC B   5      20.818   7.744   5.1630  0.00  0.00     0.000 C
ATOM     63  C5  BGC B   5      21.822   8.218   4.1010  0.00  0.00     0.000 C
ATOM     64  O5  BGC B   5      22.064   7.152   3.1890  0.00  0.00     0.000 O
ATOM     65   O  BGC B   5      23.638   7.504   5.4010  0.00  0.00     0.000 O
ATOM     67  HD  BGC B   5      23.852   7.315   6.2190  0.00  0.00     0.000 HD
ATOM     67   O  BGC B   5      23.638   7.504   5.4010  0.00  0.00     0.000 O
ATOM     69  HD  BGC B   5      23.852   7.315   6.2190  0.00  0.00     0.000 HD
ENDBRANCH 58 62
ENDBRANCH 45 58
ENDBRANCH 44 48
ENDBRANCH 31 44
ENDBRANCH 30 34
ENDBRANCH 17 30
ENDBRANCH 16 20
ENDBRANCH 1 16
TORSDOF 8
ENDMDL
MODEL 31
REMARK VINA RESULT:      -0.7     12.931     23.464
ROOT
ATOM      1  C1  BGC B   1      33.814  10.989  18.1140  0.00  0.00     0.000 C
ATOM      2  C2  BGC B   1      35.307  11.306  18.0500  0.00  0.00     0.000 C
ATOM      3  C3  BGC B   1      35.925  11.186  19.4300  0.00  0.00     0.000 C
ATOM      4  C4  BGC B   1      35.143  12.012  20.4440  0.00  0.00     0.000 C
ATOM      5  C5  BGC B   1      33.686  11.573  20.4020  0.00  0.00     0.000 C
ATOM      6  O5  BGC B   1      33.196  11.835  19.0740  0.00  0.00     0.000 O
ATOM      7   O  BGC B   1      35.950  10.377  17.1620  0.00  0.00     0.000 O
ATOM      9  HD  BGC B   1      36.785  10.199  17.3020  0.00  0.00     0.000 HD
ATOM      9   O  BGC B   1      37.288  11.616  19.3650  0.00  0.00     0.000 O
ATOM     11  HD  BGC B   1      38.123  11.437  19.5060  0.00  0.00     0.000 HD
ATOM     11   O  BGC B   1      35.671  11.800  21.7350  0.00  0.00     0.000 O
ATOM     13  HD  BGC B   1      36.507  11.622  21.8750  0.00  0.00     0.000 HD
ATOM     13   C  BGC B   1      32.778  12.277  21.4010  0.00  0.00     0.000 C
ATOM     14   O  BGC B   1      32.828  13.694  21.2740  0.00  0.00     0.000 O
ATOM     16  HD  BGC B   1      33.664  13.516  21.4140  0.00  0.00     0.000 HD
ENDROOT
BRANCH 1 16
ATOM     16  O4  BGC B   2      33.267  11.390  16.8590  0.00  0.00     0.000 O
BRANCH 16 20
ATOM     17  C1  BGC B   2      30.375  10.395  14.1800  0.00  0.00     0.000 C
ATOM     18  C2  BGC B   2      29.841  11.079  15.4300  0.00  0.00     0.000 C
ATOM     19  C3  BGC B   2      31.013  11.721  16.1690  0.00  0.00     0.000 C
ATOM     20  C4  BGC B   2      32.097  10.697  16.4340  0.00  0.00     0.000 C
ATOM     21  C5  BGC B   2      32.466   9.901  15.1810  0.00  0.00     0.000 C
ATOM     22  O5  BGC B   2      31.267   9.353  14.6190  0.00  0.00     0.000 O
ATOM     23   O  BGC B   2      28.897  12.100  15.0680  0.00  0.00     0.000 O
ATOM     25  HD  BGC B   2      29.725  12.116  15.3200  0.00  0.00     0.000 HD
ATOM     25   O  BGC B   2      30.561  12.289  17.3930  0.00  0.00     0.000 O
ATOM     27  HD  BGC B   2      31.389  12.304  17.6450  0.00  0.00     0.000 HD
ATOM     27   C  BGC B   2      33.414   8.744  15.4700  0.00  0.00     0.000 C
ATOM     28   O  BGC B   2      32.918   7.841  16.4450  0.00  0.00     0.000 O
ATOM     30  HD  BGC B   2      33.746   7.856  16.6970  0.00  0.00     0.000 HD
BRANCH 17 30
ATOM     30  O4  BGC B   3      29.283   9.719  13.5850  0.00  0.00     0.000 O
BRANCH 30 34
ATOM     31  C1  BGC B   3      27.924   8.599   9.8670  0.00  0.00     0.000 C
ATOM     32  C2  BGC B   3      29.122   7.796  10.3730  0.00  0.00     0.000 C
ATOM     33  C3  BGC B   3      29.266   8.019  11.8680  0.00  0.00     0.000 C
ATOM     34  C4  BGC B   3      29.374   9.513  12.1720  0.00  0.00     0.000 C
ATOM     35  C5  BGC B   3      28.230  10.269  11.5190  0.00  0.00     0.000 C
ATOM     36  O5  BGC B   3      28.198   9.968  10.1190  0.00  0.00     0.000 O
ATOM     37   O  BGC B   3      28.894   6.407  10.1440  0.00  0.00     0.000 O
ATOM     39  HD  BGC B   3      29.715   6.252  10.3720  0.00  0.00     0.000 HD
ATOM     39   O  BGC B   3      30.425   7.332  12.3160  0.00  0.00     0.000 O
ATOM     41  HD  BGC B   3      31.246   7.177  12.5430  0.00  0.00     0.000 HD
ATOM     41   C  BGC B   3      28.307  11.781  11.6930  0.00  0.00     0.000 C
ATOM     42   O  BGC B   3      29.521  12.269  11.1710  0.00  0.00     0.000 O
ATOM     44  HD  BGC B   3      30.342  12.113  11.3980  0.00  0.00     0.000 HD
BRANCH 31 44
ATOM     44  O4  BGC B   4      27.884   8.450   8.4710  0.00  0.00     0.000 O
BRANCH 44 48
ATOM     45  C1  BGC B   4      25.209   8.349   5.3670  0.00  0.00     0.000 C
ATOM     46  C2  BGC B   4      25.489   9.738   5.9220  0.00  0.00     0.000 C
ATOM     47  C3  BGC B   4      26.744   9.701   6.7600  0.00  0.00     0.000 C
ATOM     48  C4  BGC B   4      26.633   8.616   7.8350  0.00  0.00     0.000 C
ATOM     49  C5  BGC B   4      26.249   7.271   7.2060  0.00  0.00     0.000 C
ATOM     50  O5  BGC B   4      25.045   7.421   6.4400  0.00  0.00     0.000 O
ATOM     51   O  BGC B   4      25.672  10.674   4.8430  0.00  0.00     0.000 O
ATOM     53  HD  BGC B   4      26.501  10.555   5.0630  0.00  0.00     0.000 HD
ATOM     53   O  BGC B   4      26.922  10.982   7.3820  0.00  0.00     0.000 O
ATOM     55  HD  BGC B   4      27.751  10.863   7.6020  0.00  0.00     0.000 HD
ATOM     55   C  BGC B   4      26.003   6.157   8.2080  0.00  0.00     0.000 C
ATOM     56   O  BGC B   4      25.010   6.612   9.1290  0.00  0.00     0.000 O
ATOM     58  HD  BGC B   4      25.839   6.493   9.3490  0.00  0.00     0.000 HD
BRANCH 45 58
ATOM     58  O4  BGC B   5      23.894   8.406   4.8140  0.00  0.00     0.000 O
BRANCH 58 62
ATOM     59  C1  BGC B   5      21.381   6.383   2.2190  0.00  0.00     0.000 C
ATOM     60  C2  BGC B   5      21.506   5.781   3.6040  0.00  0.00     0.000 C
ATOM     61  C3  BGC B   5      22.090   6.791   4.5730  0.00  0.00     0.000 C
ATOM     62  C4  BGC B   5      23.407   7.318   4.0260  0.00  0.00     0.000 C
ATOM     63  C5  BGC B   5      23.228   7.839   2.5930  0.00  0.00     0.000 C
ATOM     64  O5  BGC B   5      22.681   6.799   1.7900  0.00  0.00     0.000 O
ATOM     65   O  BGC B   5      25.388   7.147   1.9990  0.00  0.00     0.000 O
ATOM     67  HD  BGC B   5      26.155   6.947   2.3480  0.00  0.00     0.000 HD
ATOM     67   O  BGC B   5      25.388   7.147   1.9990  0.00  0.00     0.000 O
ATOM     69  HD  BGC B   5      26.155   6.947   2.3480  0.00  0.00     0.000 HD
ENDBRANCH 58 62
ENDBRANCH 45 58
ENDBRANCH 44 48
ENDBRANCH 31 44
ENDBRANCH 30 34
ENDBRANCH 17 30
ENDBRANCH 16 20
ENDBRANCH 1 16
TORSDOF 8
ENDMDL
MODEL 32
REMARK VINA RESULT:      -0.4     14.283     20.515
ROOT
ATOM      1  C1  BGC B   1      20.665  18.624  21.6060  0.00  0.00     0.000 C
ATOM      2  C2  BGC B   1      20.386  17.813  22.8710  0.00  0.00     0.000 C
ATOM      3  C3  BGC B   1      20.287  18.736  24.0700  0.00  0.00     0.000 C
ATOM      4  C4  BGC B   1      21.507  19.644  24.1540  0.00  0.00     0.000 C
ATOM      5  C5  BGC B   1      21.643  20.391  22.8350  0.00  0.00     0.000 C
ATOM      6  O5  BGC B   1      21.834  19.408  21.8010  0.00  0.00     0.000 O
ATOM      7   O  BGC B   1      19.145  17.105  22.7150  0.00  0.00     0.000 O
ATOM      9  HD  BGC B   1      18.696  16.918  23.4310  0.00  0.00     0.000 HD
ATOM      9   O  BGC B   1      20.159  17.944  25.2540  0.00  0.00     0.000 O
ATOM     11  HD  BGC B   1      19.709  17.757  25.9700  0.00  0.00     0.000 HD
ATOM     11   O  BGC B   1      21.343  20.563  25.2120  0.00  0.00     0.000 O
ATOM     13  HD  BGC B   1      20.893  20.376  25.9280  0.00  0.00     0.000 HD
ATOM     13   C  BGC B   1      22.797  21.382  22.7790  0.00  0.00     0.000 C
ATOM     14   O  BGC B   1      24.049  20.776  23.0870  0.00  0.00     0.000 O
ATOM     16  HD  BGC B   1      23.599  20.589  23.8030  0.00  0.00     0.000 HD
ENDROOT
BRANCH 1 16
ATOM     16  O4  BGC B   2      21.016  17.679  20.5970  0.00  0.00     0.000 O
BRANCH 16 20
ATOM     17  C1  BGC B   2      20.693  17.004  16.6000  0.00  0.00     0.000 C
ATOM     18  C2  BGC B   2      21.649  18.134  16.9540  0.00  0.00     0.000 C
ATOM     19  C3  BGC B   2      21.965  18.052  18.4460  0.00  0.00     0.000 C
ATOM     20  C4  BGC B   2      20.687  18.039  19.2580  0.00  0.00     0.000 C
ATOM     21  C5  BGC B   2      19.678  17.013  18.7420  0.00  0.00     0.000 C
ATOM     22  O5  BGC B   2      19.479  17.233  17.3400  0.00  0.00     0.000 O
ATOM     23   O  BGC B   2      22.870  18.000  16.2070  0.00  0.00     0.000 O
ATOM     25  HD  BGC B   2      22.650  17.826  17.0260  0.00  0.00     0.000 HD
ATOM     25   O  BGC B   2      22.782  19.152  18.8290  0.00  0.00     0.000 O
ATOM     27  HD  BGC B   2      22.562  18.978  19.6480  0.00  0.00     0.000 HD
ATOM     27   C  BGC B   2      18.320  17.118  19.4250  0.00  0.00     0.000 C
ATOM     28   O  BGC B   2      17.739  18.408  19.3240  0.00  0.00     0.000 O
ATOM     30  HD  BGC B   2      17.519  18.234  20.1430  0.00  0.00     0.000 HD
BRANCH 17 30
ATOM     30  O4  BGC B   3      20.336  17.181  15.2420  0.00  0.00     0.000 O
BRANCH 30 34
ATOM     31  C1  BGC B   3      19.333  14.952  11.9330  0.00  0.00     0.000 C
ATOM     32  C2  BGC B   3      18.272  14.969  13.0320  0.00  0.00     0.000 C
ATOM     33  C3  BGC B   3      18.571  16.111  13.9860  0.00  0.00     0.000 C
ATOM     34  C4  BGC B   3      19.995  15.988  14.5280  0.00  0.00     0.000 C
ATOM     35  C5  BGC B   3      20.983  15.831  13.3860  0.00  0.00     0.000 C
ATOM     36  O5  BGC B   3      20.586  14.731  12.5610  0.00  0.00     0.000 O
ATOM     37   O  BGC B   3      16.989  15.190  12.4510  0.00  0.00     0.000 O
ATOM     39  HD  BGC B   3      16.629  15.014  13.2190  0.00  0.00     0.000 HD
ATOM     39   O  BGC B   3      17.626  16.072  15.0450  0.00  0.00     0.000 O
ATOM     41  HD  BGC B   3      17.267  15.896  15.8130  0.00  0.00     0.000 HD
ATOM     41   C  BGC B   3      22.422  15.609  13.8390  0.00  0.00     0.000 C
ATOM     42   O  BGC B   3      22.502  14.469  14.6600  0.00  0.00     0.000 O
ATOM     44  HD  BGC B   3      22.143  14.293  15.4280  0.00  0.00     0.000 HD
BRANCH 31 44
ATOM     44  O4  BGC B   4      19.084  13.825  11.1320  0.00  0.00     0.000 O
BRANCH 44 48
ATOM     45  C1  BGC B   4      19.416  12.559   7.2470  0.00  0.00     0.000 C
ATOM     46  C2  BGC B   4      20.727  12.600   8.0190  0.00  0.00     0.000 C
ATOM     47  C3  BGC B   4      20.439  12.691   9.4970  0.00  0.00     0.000 C
ATOM     48  C4  BGC B   4      19.513  13.876   9.7870  0.00  0.00     0.000 C
ATOM     49  C5  BGC B   4      18.265  13.815   8.8980  0.00  0.00     0.000 C
ATOM     50  O5  BGC B   4      18.655  13.737   7.5190  0.00  0.00     0.000 O
ATOM     51   O  BGC B   4      21.490  11.406   7.7610  0.00  0.00     0.000 O
ATOM     53  HD  BGC B   4      21.180  11.204   8.5440  0.00  0.00     0.000 HD
ATOM     53   O  BGC B   4      21.678  12.861  10.2010  0.00  0.00     0.000 O
ATOM     55  HD  BGC B   4      21.368  12.659  10.9840  0.00  0.00     0.000 HD
ATOM     55   C  BGC B   4      17.341  15.013   9.0300  0.00  0.00     0.000 C
ATOM     56   O  BGC B   4      18.113  16.188   8.7770  0.00  0.00     0.000 O
ATOM     58  HD  BGC B   4      17.803  15.987   9.5600  0.00  0.00     0.000 HD
BRANCH 45 58
ATOM     58  O4  BGC B   5      19.764  12.734   5.8740  0.00  0.00     0.000 O
BRANCH 58 62
ATOM     59  C1  BGC B   5      19.075  11.122   2.1230  0.00  0.00     0.000 C
ATOM     60  C2  BGC B   5      17.963  11.994   2.6700  0.00  0.00     0.000 C
ATOM     61  C3  BGC B   5      18.471  12.848   3.8160  0.00  0.00     0.000 C
ATOM     62  C4  BGC B   5      19.108  11.957   4.8700  0.00  0.00     0.000 C
ATOM     63  C5  BGC B   5      20.168  11.044   4.2380  0.00  0.00     0.000 C
ATOM     64  O5  BGC B   5      19.565  10.298   3.1850  0.00  0.00     0.000 O
ATOM     65   O  BGC B   5      19.669   9.311   5.7370  0.00  0.00     0.000 O
ATOM     67  HD  BGC B   5      19.308   9.170   6.5110  0.00  0.00     0.000 HD
ATOM     67   O  BGC B   5      19.669   9.311   5.7370  0.00  0.00     0.000 O
ATOM     69  HD  BGC B   5      19.308   9.170   6.5110  0.00  0.00     0.000 HD
ENDBRANCH 58 62
ENDBRANCH 45 58
ENDBRANCH 44 48
ENDBRANCH 31 44
ENDBRANCH 30 34
ENDBRANCH 17 30
ENDBRANCH 16 20
ENDBRANCH 1 16
TORSDOF 8
ENDMDL
MODEL 33
REMARK VINA RESULT:      -0.4     13.537     19.554
ROOT
ATOM      1  C1  BGC B   1      20.434  17.059  21.8220  0.00  0.00     0.000 C
ATOM      2  C2  BGC B   1      20.262  16.421  23.2000  0.00  0.00     0.000 C
ATOM      3  C3  BGC B   1      20.177  17.497  24.2650  0.00  0.00     0.000 C
ATOM      4  C4  BGC B   1      21.352  18.460  24.1530  0.00  0.00     0.000 C
ATOM      5  C5  BGC B   1      21.382  19.021  22.7390  0.00  0.00     0.000 C
ATOM      6  O5  BGC B   1      21.569  17.913  21.8400  0.00  0.00     0.000 O
ATOM      7   O  BGC B   1      19.052  15.645  23.2140  0.00  0.00     0.000 O
ATOM      9  HD  BGC B   1      18.650  15.540  23.9730  0.00  0.00     0.000 HD
ATOM      9   O  BGC B   1      20.151  16.872  25.5520  0.00  0.00     0.000 O
ATOM     11  HD  BGC B   1      19.748  16.768  26.3110  0.00  0.00     0.000 HD
ATOM     11   O  BGC B   1      21.195  19.509  25.0830  0.00  0.00     0.000 O
ATOM     13  HD  BGC B   1      20.793  19.405  25.8430  0.00  0.00     0.000 HD
ATOM     13   C  BGC B   1      22.479  20.044  22.4810  0.00  0.00     0.000 C
ATOM     14   O  BGC B   1      23.774  19.542  22.7960  0.00  0.00     0.000 O
ATOM     16  HD  BGC B   1      23.372  19.437  23.5560  0.00  0.00     0.000 HD
ENDROOT
BRANCH 1 16
ATOM     16  O4  BGC B   2      20.780  15.999  20.9330  0.00  0.00     0.000 O
BRANCH 16 20
ATOM     17  C1  BGC B   2      20.288  14.760  17.0910  0.00  0.00     0.000 C
ATOM     18  C2  BGC B   2      21.202  15.969  17.2310  0.00  0.00     0.000 C
ATOM     19  C3  BGC B   2      21.598  16.109  18.6990  0.00  0.00     0.000 C
ATOM     20  C4  BGC B   2      20.365  16.154  19.5780  0.00  0.00     0.000 C
ATOM     21  C5  BGC B   2      19.385  15.023  19.2670  0.00  0.00     0.000 C
ATOM     22  O5  BGC B   2      19.103  15.037  17.8620  0.00  0.00     0.000 O
ATOM     23   O  BGC B   2      22.388  15.786  16.4400  0.00  0.00     0.000 O
ATOM     25  HD  BGC B   2      22.219  15.718  17.2870  0.00  0.00     0.000 HD
ATOM     25   O  BGC B   2      22.376  17.286  18.8810  0.00  0.00     0.000 O
ATOM     27  HD  BGC B   2      22.208  17.219  19.7270  0.00  0.00     0.000 HD
ATOM     27   C  BGC B   2      18.060  15.164  20.0060  0.00  0.00     0.000 C
ATOM     28   O  BGC B   2      17.409  16.400  19.7630  0.00  0.00     0.000 O
ATOM     30  HD  BGC B   2      17.240  16.332  20.6100  0.00  0.00     0.000 HD
BRANCH 17 30
ATOM     30  O4  BGC B   3      19.853  14.730  15.7440  0.00  0.00     0.000 O
BRANCH 30 34
ATOM     31  C1  BGC B   3      18.797  12.020  12.8350  0.00  0.00     0.000 C
ATOM     32  C2  BGC B   3      17.794  12.144  13.9810  0.00  0.00     0.000 C
ATOM     33  C3  BGC B   3      18.083  13.420  14.7510  0.00  0.00     0.000 C
ATOM     34  C4  BGC B   3      19.537  13.436  15.2220  0.00  0.00     0.000 C
ATOM     35  C5  BGC B   3      20.472  13.165  14.0560  0.00  0.00     0.000 C
ATOM     36  O5  BGC B   3      20.090  11.944  13.4140  0.00  0.00     0.000 O
ATOM     37   O  BGC B   3      16.473  12.226  13.4500  0.00  0.00     0.000 O
ATOM     39  HD  BGC B   3      16.162  12.144  14.2540  0.00  0.00     0.000 HD
ATOM     39   O  BGC B   3      17.197  13.488  15.8580  0.00  0.00     0.000 O
ATOM     41  HD  BGC B   3      16.886  13.405  16.6630  0.00  0.00     0.000 HD
ATOM     41   C  BGC B   3      21.942  13.071  14.4510  0.00  0.00     0.000 C
ATOM     42   O  BGC B   3      22.122  12.060  15.4150  0.00  0.00     0.000 O
ATOM     44  HD  BGC B   3      21.812  11.978  16.2190  0.00  0.00     0.000 HD
BRANCH 31 44
ATOM     44  O4  BGC B   4      18.565  10.783  12.2110  0.00  0.00     0.000 O
BRANCH 44 48
ATOM     45  C1  BGC B   4      18.662   9.060   8.4930  0.00  0.00     0.000 C
ATOM     46  C2  BGC B   4      20.014   9.160   9.1850  0.00  0.00     0.000 C
ATOM     47  C3  BGC B   4      19.808   9.431  10.6550  0.00  0.00     0.000 C
ATOM     48  C4  BGC B   4      18.921  10.665  10.8490  0.00  0.00     0.000 C
ATOM     49  C5  BGC B   4      17.626  10.531  10.0390  0.00  0.00     0.000 C
ATOM     50  O5  BGC B   4      17.939  10.281   8.6610  0.00  0.00     0.000 O
ATOM     51   O  BGC B   4      20.739   7.925   9.0320  0.00  0.00     0.000 O
ATOM     53  HD  BGC B   4      20.469   7.825   9.8490  0.00  0.00     0.000 HD
ATOM     53   O  BGC B   4      21.086   9.652  11.2680  0.00  0.00     0.000 O
ATOM     55  HD  BGC B   4      20.815   9.552  12.0850  0.00  0.00     0.000 HD
ATOM     55   C  BGC B   4      16.733  11.758  10.0760  0.00  0.00     0.000 C
ATOM     56   O  BGC B   4      17.511  12.876   9.6450  0.00  0.00     0.000 O
ATOM     58  HD  BGC B   4      17.240  12.776  10.4620  0.00  0.00     0.000 HD
BRANCH 45 58
ATOM     58  O4  BGC B   5      18.939   9.065   7.0930  0.00  0.00     0.000 O
BRANCH 58 62
ATOM     59  C1  BGC B   5      17.765   7.269   3.5510  0.00  0.00     0.000 C
ATOM     60  C2  BGC B   5      16.834   8.345   4.0740  0.00  0.00     0.000 C
ATOM     61  C3  BGC B   5      17.540   9.203   5.1060  0.00  0.00     0.000 C
ATOM     62  C4  BGC B   5      18.107   8.316   6.2030  0.00  0.00     0.000 C
ATOM     63  C5  BGC B   5      18.975   7.201   5.6010  0.00  0.00     0.000 C
ATOM     64  O5  BGC B   5      18.198   6.472   4.6570  0.00  0.00     0.000 O
ATOM     65   O  BGC B   5      18.326   5.698   7.2800  0.00  0.00     0.000 O
ATOM     67  HD  BGC B   5      18.003   5.679   8.0830  0.00  0.00     0.000 HD
ATOM     67   O  BGC B   5      18.326   5.698   7.2800  0.00  0.00     0.000 O
ATOM     69  HD  BGC B   5      18.003   5.679   8.0830  0.00  0.00     0.000 HD
ENDBRANCH 58 62
ENDBRANCH 45 58
ENDBRANCH 44 48
ENDBRANCH 31 44
ENDBRANCH 30 34
ENDBRANCH 17 30
ENDBRANCH 16 20
ENDBRANCH 1 16
TORSDOF 8
ENDMDL
MODEL 34
REMARK VINA RESULT:      -0.4     12.689     17.888
ROOT
ATOM      1  C1  BGC B   1      18.911  14.090  21.9260  0.00  0.00     0.000 C
ATOM      2  C2  BGC B   1      19.897  13.849  23.0690  0.00  0.00     0.000 C
ATOM      3  C3  BGC B   1      19.284  14.285  24.3860  0.00  0.00     0.000 C
ATOM      4  C4  BGC B   1      18.760  15.713  24.2890  0.00  0.00     0.000 C
ATOM      5  C5  BGC B   1      17.785  15.790  23.1230  0.00  0.00     0.000 C
ATOM      6  O5  BGC B   1      18.515  15.454  21.9290  0.00  0.00     0.000 O
ATOM      7   O  BGC B   1      20.211  12.448  23.1350  0.00  0.00     0.000 O
ATOM      9  HD  BGC B   1      20.440  12.122  23.9040  0.00  0.00     0.000 HD
ATOM      9   O  BGC B   1      20.272  14.174  25.4140  0.00  0.00     0.000 O
ATOM     11  HD  BGC B   1      20.501  13.849  26.1840  0.00  0.00     0.000 HD
ATOM     11   O  BGC B   1      18.103  16.058  25.4890  0.00  0.00     0.000 O
ATOM     13  HD  BGC B   1      18.331  15.732  26.2590  0.00  0.00     0.000 HD
ATOM     13   C  BGC B   1      17.133  17.151  22.9250  0.00  0.00     0.000 C
ATOM     14   O  BGC B   1      18.091  18.196  22.7850  0.00  0.00     0.000 O
ATOM     16  HD  BGC B   1      18.319  17.870  23.5540  0.00  0.00     0.000 HD
ENDROOT
BRANCH 1 16
ATOM     16  O4  BGC B   2      19.651  13.919  20.7190  0.00  0.00     0.000 O
BRANCH 16 20
ATOM     17  C1  BGC B   2      19.267  12.243  17.0340  0.00  0.00     0.000 C
ATOM     18  C2  BGC B   2      18.782  13.684  17.1040  0.00  0.00     0.000 C
ATOM     19  C3  BGC B   2      19.303  14.309  18.3960  0.00  0.00     0.000 C
ATOM     20  C4  BGC B   2      18.913  13.461  19.5900  0.00  0.00     0.000 C
ATOM     21  C5  BGC B   2      19.252  11.983  19.3900  0.00  0.00     0.000 C
ATOM     22  O5  BGC B   2      18.681  11.547  18.1500  0.00  0.00     0.000 O
ATOM     23   O  BGC B   2      19.286  14.430  15.9840  0.00  0.00     0.000 O
ATOM     25  HD  BGC B   2      19.509  14.384  16.8200  0.00  0.00     0.000 HD
ATOM     25   O  BGC B   2      18.787  15.627  18.5390  0.00  0.00     0.000 O
ATOM     27  HD  BGC B   2      19.011  15.581  19.3740  0.00  0.00     0.000 HD
ATOM     27   C  BGC B   2      18.698  11.092  20.4950  0.00  0.00     0.000 C
ATOM     28   O  BGC B   2      17.294  11.211  20.6620  0.00  0.00     0.000 O
ATOM     30  HD  BGC B   2      17.518  11.165  21.4970  0.00  0.00     0.000 HD
BRANCH 17 30
ATOM     30  O4  BGC B   3      18.673  11.667  15.8860  0.00  0.00     0.000 O
BRANCH 30 34
ATOM     31  C1  BGC B   3      19.488   8.840  13.0100  0.00  0.00     0.000 C
ATOM     32  C2  BGC B   3      19.146   8.267  14.3850  0.00  0.00     0.000 C
ATOM     33  C3  BGC B   3      18.490   9.352  15.2210  0.00  0.00     0.000 C
ATOM     34  C4  BGC B   3      19.393  10.582  15.2910  0.00  0.00     0.000 C
ATOM     35  C5  BGC B   3      19.811  11.013  13.8960  0.00  0.00     0.000 C
ATOM     36  O5  BGC B   3      20.405   9.904  13.2140  0.00  0.00     0.000 O
ATOM     37   O  BGC B   3      18.221   7.192  14.2350  0.00  0.00     0.000 O
ATOM     39  HD  BGC B   3      18.330   7.003  15.0730  0.00  0.00     0.000 HD
ATOM     39   O  BGC B   3      18.247   8.833  16.5200  0.00  0.00     0.000 O
ATOM     41  HD  BGC B   3      18.356   8.644  17.3580  0.00  0.00     0.000 HD
ATOM     41   C  BGC B   3      20.789  12.182  13.8750  0.00  0.00     0.000 C
ATOM     42   O  BGC B   3      21.947  11.859  14.6090  0.00  0.00     0.000 O
ATOM     44  HD  BGC B   3      22.056  11.670  15.4470  0.00  0.00     0.000 HD
BRANCH 31 44
ATOM     44  O4  BGC B   4      20.182   7.844  12.3050  0.00  0.00     0.000 O
BRANCH 44 48
ATOM     45  C1  BGC B   4      20.698   6.438   8.4890  0.00  0.00     0.000 C
ATOM     46  C2  BGC B   4      21.457   7.719   8.8040  0.00  0.00     0.000 C
ATOM     47  C3  BGC B   4      21.512   7.915  10.3000  0.00  0.00     0.000 C
ATOM     48  C4  BGC B   4      20.101   7.870  10.8940  0.00  0.00     0.000 C
ATOM     49  C5  BGC B   4      19.368   6.599  10.4470  0.00  0.00     0.000 C
ATOM     50  O5  BGC B   4      19.371   6.517   9.0140  0.00  0.00     0.000 O
ATOM     51   O  BGC B   4      22.800   7.636   8.2910  0.00  0.00     0.000 O
ATOM     53  HD  BGC B   4      22.963   7.481   9.1280  0.00  0.00     0.000 HD
ATOM     53   O  BGC B   4      22.113   9.188  10.5770  0.00  0.00     0.000 O
ATOM     55  HD  BGC B   4      22.276   9.034  11.4130  0.00  0.00     0.000 HD
ATOM     55   C  BGC B   4      17.918   6.521  10.8920  0.00  0.00     0.000 C
ATOM     56   O  BGC B   4      17.257   7.701  10.4320  0.00  0.00     0.000 O
ATOM     58  HD  BGC B   4      17.420   7.546  11.2690  0.00  0.00     0.000 HD
BRANCH 45 58
ATOM     58  O4  BGC B   5      20.466   6.457   7.0800  0.00  0.00     0.000 O
BRANCH 58 62
ATOM     59  C1  BGC B   5      21.445   4.078   3.8350  0.00  0.00     0.000 C
ATOM     60  C2  BGC B   5      19.987   4.051   4.2450  0.00  0.00     0.000 C
ATOM     61  C3  BGC B   5      19.661   5.234   5.1360  0.00  0.00     0.000 C
ATOM     62  C4  BGC B   5      20.616   5.256   6.3200  0.00  0.00     0.000 C
ATOM     63  C5  BGC B   5      22.074   5.202   5.8400  0.00  0.00     0.000 C
ATOM     64  O5  BGC B   5      22.246   4.050   5.0210  0.00  0.00     0.000 O
ATOM     65   O  BGC B   5      22.716   3.952   7.7160  0.00  0.00     0.000 O
ATOM     67  HD  BGC B   5      22.466   3.767   8.5250  0.00  0.00     0.000 HD
ATOM     67   O  BGC B   5      22.716   3.952   7.7160  0.00  0.00     0.000 O
ATOM     69  HD  BGC B   5      22.466   3.767   8.5250  0.00  0.00     0.000 HD
ENDBRANCH 58 62
ENDBRANCH 45 58
ENDBRANCH 44 48
ENDBRANCH 31 44
ENDBRANCH 30 34
ENDBRANCH 17 30
ENDBRANCH 16 20
ENDBRANCH 1 16
TORSDOF 8
ENDMDL
MODEL 35
REMARK VINA RESULT:      -0.4     13.116     19.126
ROOT
ATOM      1  C1  BGC B   1      20.062  16.205  21.5800  0.00  0.00     0.000 C
ATOM      2  C2  BGC B   1      19.731  15.573  22.9310  0.00  0.00     0.000 C
ATOM      3  C3  BGC B   1      19.271  16.640  23.9070  0.00  0.00     0.000 C
ATOM      4  C4  BGC B   1      20.276  17.783  23.9690  0.00  0.00     0.000 C
ATOM      5  C5  BGC B   1      20.489  18.315  22.5590  0.00  0.00     0.000 C
ATOM      6  O5  BGC B   1      21.021  17.236  21.7680  0.00  0.00     0.000 O
ATOM      7   O  BGC B   1      18.681  14.607  22.7570  0.00  0.00     0.000 O
ATOM      9  HD  BGC B   1      18.161  14.452  23.4320  0.00  0.00     0.000 HD
ATOM      9   O  BGC B   1      19.096  16.044  25.1950  0.00  0.00     0.000 O
ATOM     11  HD  BGC B   1      18.577  15.888  25.8700  0.00  0.00     0.000 HD
ATOM     11   O  BGC B   1      19.777  18.808  24.8000  0.00  0.00     0.000 O
ATOM     13  HD  BGC B   1      19.257  18.653  25.4750  0.00  0.00     0.000 HD
ATOM     13   C  BGC B   1      21.438  19.501  22.4600  0.00  0.00     0.000 C
ATOM     14   O  BGC B   1      22.711  19.227  23.0380  0.00  0.00     0.000 O
ATOM     16  HD  BGC B   1      22.191  19.071  23.7130  0.00  0.00     0.000 HD
ENDROOT
BRANCH 1 16
ATOM     16  O4  BGC B   2      20.738  15.201  20.8260  0.00  0.00     0.000 O
BRANCH 16 20
ATOM     17  C1  BGC B   2      21.215  13.861  17.0170  0.00  0.00     0.000 C
ATOM     18  C2  BGC B   2      21.986  15.138  17.3160  0.00  0.00     0.000 C
ATOM     19  C3  BGC B   2      22.029  15.334  18.8300  0.00  0.00     0.000 C
ATOM     20  C4  BGC B   2      20.629  15.300  19.4090  0.00  0.00     0.000 C
ATOM     21  C5  BGC B   2      19.827  14.092  18.9250  0.00  0.00     0.000 C
ATOM     22  O5  BGC B   2      19.871  14.060  17.4930  0.00  0.00     0.000 O
ATOM     23   O  BGC B   2      23.329  15.033  16.8170  0.00  0.00     0.000 O
ATOM     25  HD  BGC B   2      22.979  14.967  17.6070  0.00  0.00     0.000 HD
ATOM     25   O  BGC B   2      22.661  16.571  19.1400  0.00  0.00     0.000 O
ATOM     27  HD  BGC B   2      22.311  16.505  19.9300  0.00  0.00     0.000 HD
ATOM     27   C  BGC B   2      18.364  14.143  19.3440  0.00  0.00     0.000 C
ATOM     28   O  BGC B   2      17.698  15.321  18.9190  0.00  0.00     0.000 O
ATOM     30  HD  BGC B   2      17.348  15.256  19.7080  0.00  0.00     0.000 HD
BRANCH 17 30
ATOM     30  O4  BGC B   3      21.099  13.774  15.6090  0.00  0.00     0.000 O
BRANCH 30 34
ATOM     31  C1  BGC B   3      20.857  10.930  12.6460  0.00  0.00     0.000 C
ATOM     32  C2  BGC B   3      19.586  11.088  13.4790  0.00  0.00     0.000 C
ATOM     33  C3  BGC B   3      19.658  12.400  14.2410  0.00  0.00     0.000 C
ATOM     34  C4  BGC B   3      20.935  12.455  15.0790  0.00  0.00     0.000 C
ATOM     35  C5  BGC B   3      22.146  12.147  14.2160  0.00  0.00     0.000 C
ATOM     36  O5  BGC B   3      21.951  10.896  13.5490  0.00  0.00     0.000 O
ATOM     37   O  BGC B   3      18.453  11.130  12.6140  0.00  0.00     0.000 O
ATOM     39  HD  BGC B   3      17.940  11.077  13.3100  0.00  0.00     0.000 HD
ATOM     39   O  BGC B   3      18.510  12.502  15.0700  0.00  0.00     0.000 O
ATOM     41  HD  BGC B   3      17.997  12.449  15.7660  0.00  0.00     0.000 HD
ATOM     41   C  BGC B   3      23.459  12.090  14.9890  0.00  0.00     0.000 C
ATOM     42   O  BGC B   3      23.379  11.123  16.0100  0.00  0.00     0.000 O
ATOM     44  HD  BGC B   3      22.867  11.070  16.7060  0.00  0.00     0.000 HD
BRANCH 31 44
ATOM     44  O4  BGC B   4      20.801   9.665  12.0390  0.00  0.00     0.000 O
BRANCH 44 48
ATOM     45  C1  BGC B   4      22.030   7.724   8.6430  0.00  0.00     0.000 C
ATOM     46  C2  BGC B   4      23.117   7.932   9.6890  0.00  0.00     0.000 C
ATOM     47  C3  BGC B   4      22.483   8.282  11.0120  0.00  0.00     0.000 C
ATOM     48  C4  BGC B   4      21.543   9.481  10.8500  0.00  0.00     0.000 C
ATOM     49  C5  BGC B   4      20.545   9.234   9.7120  0.00  0.00     0.000 C
ATOM     50  O5  BGC B   4      21.255   8.916   8.5060  0.00  0.00     0.000 O
ATOM     51   O  BGC B   4      23.891   6.727   9.8420  0.00  0.00     0.000 O
ATOM     53  HD  BGC B   4      23.396   6.663  10.5500  0.00  0.00     0.000 HD
ATOM     53   O  BGC B   4      23.519   8.602  11.9510  0.00  0.00     0.000 O
ATOM     55  HD  BGC B   4      23.025   8.539  12.6590  0.00  0.00     0.000 HD
ATOM     55   C  BGC B   4      19.646  10.416   9.3990  0.00  0.00     0.000 C
ATOM     56   O  BGC B   4      20.483  11.542   9.1320  0.00  0.00     0.000 O
ATOM     58  HD  BGC B   4      19.989  11.479   9.8400  0.00  0.00     0.000 HD
BRANCH 45 58
ATOM     58  O4  BGC B   5      22.704   7.656   7.3870  0.00  0.00     0.000 O
BRANCH 58 62
ATOM     59  C1  BGC B   5      22.917   5.359   3.9480  0.00  0.00     0.000 C
ATOM     60  C2  BGC B   5      21.733   6.301   4.0280  0.00  0.00     0.000 C
ATOM     61  C3  BGC B   5      21.967   7.363   5.0860  0.00  0.00     0.000 C
ATOM     62  C4  BGC B   5      22.292   6.694   6.4120  0.00  0.00     0.000 C
ATOM     63  C5  BGC B   5      23.446   5.695   6.2460  0.00  0.00     0.000 C
ATOM     64  O5  BGC B   5      23.100   4.756   5.2330  0.00  0.00     0.000 O
ATOM     65   O  BGC B   5      22.533   4.267   7.8660  0.00  0.00     0.000 O
ATOM     67  HD  BGC B   5      21.987   4.268   8.5380  0.00  0.00     0.000 HD
ATOM     67   O  BGC B   5      22.533   4.267   7.8660  0.00  0.00     0.000 O
ATOM     69  HD  BGC B   5      21.987   4.268   8.5380  0.00  0.00     0.000 HD
ENDBRANCH 58 62
ENDBRANCH 45 58
ENDBRANCH 44 48
ENDBRANCH 31 44
ENDBRANCH 30 34
ENDBRANCH 17 30
ENDBRANCH 16 20
ENDBRANCH 1 16
TORSDOF 8
ENDMDL
MODEL 36
REMARK VINA RESULT:      -0.1     44.131     50.328
ROOT
ATOM      1  C1  BGC B   1      31.015  44.156  36.0210  0.00  0.00     0.000 C
ATOM      2  C2  BGC B   1      30.794  45.547  36.6120  0.00  0.00     0.000 C
ATOM      3  C3  BGC B   1      31.041  45.523  38.1080  0.00  0.00     0.000 C
ATOM      4  C4  BGC B   1      30.231  44.415  38.7700  0.00  0.00     0.000 C
ATOM      5  C5  BGC B   1      30.569  43.097  38.0880  0.00  0.00     0.000 C
ATOM      6  O5  BGC B   1      30.192  43.220  36.7040  0.00  0.00     0.000 O
ATOM      7   O  BGC B   1      31.705  46.473  35.9980  0.00  0.00     0.000 O
ATOM      9  HD  BGC B   1      31.947  47.166  36.4580  0.00  0.00     0.000 HD
ATOM      9   O  BGC B   1      30.699  46.800  38.6550  0.00  0.00     0.000 O
ATOM     11  HD  BGC B   1      30.940  47.492  39.1150  0.00  0.00     0.000 HD
ATOM     11   O  BGC B   1      30.557  44.343  40.1410  0.00  0.00     0.000 O
ATOM     13  HD  BGC B   1      30.799  45.036  40.6010  0.00  0.00     0.000 HD
ATOM     13   C  BGC B   1      29.872  41.877  38.6720  0.00  0.00     0.000 C
ATOM     14   O  BGC B   1      28.455  42.023  38.6980  0.00  0.00     0.000 O
ATOM     16  HD  BGC B   1      28.697  42.716  39.1580  0.00  0.00     0.000 HD
ENDROOT
BRANCH 1 16
ATOM     16  O4  BGC B   2      30.501  44.202  34.6910  0.00  0.00     0.000 O
BRANCH 16 20
ATOM     17  C1  BGC B   2      31.142  42.683  30.9740  0.00  0.00     0.000 C
ATOM     18  C2  BGC B   2      30.501  41.694  31.9370  0.00  0.00     0.000 C
ATOM     19  C3  BGC B   2      29.983  42.464  33.1490  0.00  0.00     0.000 C
ATOM     20  C4  BGC B   2      31.090  43.299  33.7590  0.00  0.00     0.000 C
ATOM     21  C5  BGC B   2      31.830  44.136  32.7150  0.00  0.00     0.000 C
ATOM     22  O5  BGC B   2      32.264  43.270  31.6600  0.00  0.00     0.000 O
ATOM     23   O  BGC B   2      29.400  41.026  31.2980  0.00  0.00     0.000 O
ATOM     25  HD  BGC B   2      29.454  41.670  31.8750  0.00  0.00     0.000 HD
ATOM     25   O  BGC B   2      29.462  41.556  34.1130  0.00  0.00     0.000 O
ATOM     27  HD  BGC B   2      29.516  42.200  34.6890  0.00  0.00     0.000 HD
ATOM     27   C  BGC B   2      33.062  44.834  33.2790  0.00  0.00     0.000 C
ATOM     28   O  BGC B   2      33.989  43.942  33.8770  0.00  0.00     0.000 O
ATOM     30  HD  BGC B   2      34.042  44.586  34.4540  0.00  0.00     0.000 HD
BRANCH 17 30
ATOM     30  O4  BGC B   3      31.708  41.923  29.9230  0.00  0.00     0.000 O
BRANCH 30 34
ATOM     31  C1  BGC B   3      32.514  42.228  25.9000  0.00  0.00     0.000 C
ATOM     32  C2  BGC B   3      33.419  43.075  26.7950  0.00  0.00     0.000 C
ATOM     33  C3  BGC B   3      33.296  42.581  28.2260  0.00  0.00     0.000 C
ATOM     34  C4  BGC B   3      31.833  42.595  28.6660  0.00  0.00     0.000 C
ATOM     35  C5  BGC B   3      30.970  41.857  27.6570  0.00  0.00     0.000 C
ATOM     36  O5  BGC B   3      31.183  42.411  26.3540  0.00  0.00     0.000 O
ATOM     37   O  BGC B   3      34.775  42.924  26.3800  0.00  0.00     0.000 O
ATOM     39  HD  BGC B   3      34.993  43.567  26.9170  0.00  0.00     0.000 HD
ATOM     39   O  BGC B   3      34.078  43.422  29.0600  0.00  0.00     0.000 O
ATOM     41  HD  BGC B   3      34.297  44.065  29.5970  0.00  0.00     0.000 HD
ATOM     41   C  BGC B   3      29.478  41.900  27.9690  0.00  0.00     0.000 C
ATOM     42   O  BGC B   3      29.036  43.234  28.0450  0.00  0.00     0.000 O
ATOM     44  HD  BGC B   3      29.254  43.877  28.5820  0.00  0.00     0.000 HD
BRANCH 31 44
ATOM     44  O4  BGC B   4      32.576  42.777  24.6090  0.00  0.00     0.000 O
BRANCH 44 48
ATOM     45  C1  BGC B   4      32.350  41.662  20.6710  0.00  0.00     0.000 C
ATOM     46  C2  BGC B   4      31.017  41.680  21.4060  0.00  0.00     0.000 C
ATOM     47  C3  BGC B   4      31.160  42.464  22.6870  0.00  0.00     0.000 C
ATOM     48  C4  BGC B   4      32.319  41.911  23.5220  0.00  0.00     0.000 C
ATOM     49  C5  BGC B   4      33.599  41.829  22.6810  0.00  0.00     0.000 C
ATOM     50  O5  BGC B   4      33.351  41.061  21.4950  0.00  0.00     0.000 O
ATOM     51   O  BGC B   4      30.010  42.301  20.5850  0.00  0.00     0.000 O
ATOM     53  HD  BGC B   4      30.174  42.960  21.1230  0.00  0.00     0.000 HD
ATOM     53   O  BGC B   4      29.937  42.363  23.4300  0.00  0.00     0.000 O
ATOM     55  HD  BGC B   4      30.101  43.021  23.9680  0.00  0.00     0.000 HD
ATOM     55   C  BGC B   4      34.776  41.183  23.3900  0.00  0.00     0.000 C
ATOM     56   O  BGC B   4      34.358  39.894  23.8420  0.00  0.00     0.000 O
ATOM     58  HD  BGC B   4      34.521  40.552  24.3800  0.00  0.00     0.000 HD
BRANCH 45 58
ATOM     58  O4  BGC B   5      32.206  40.703  19.6230  0.00  0.00     0.000 O
BRANCH 58 62
ATOM     59  C1  BGC B   5      32.840  40.228  15.5590  0.00  0.00     0.000 C
ATOM     60  C2  BGC B   5      34.073  40.091  16.4290  0.00  0.00     0.000 C
ATOM     61  C3  BGC B   5      33.680  39.866  17.8770  0.00  0.00     0.000 C
ATOM     62  C4  BGC B   5      32.747  40.979  18.3290  0.00  0.00     0.000 C
ATOM     63  C5  BGC B   5      31.563  41.118  17.3620  0.00  0.00     0.000 C
ATOM     64  O5  BGC B   5      32.065  41.328  16.0470  0.00  0.00     0.000 O
ATOM     65   O  BGC B   5      31.480  43.438  17.6900  0.00  0.00     0.000 O
ATOM     67  HD  BGC B   5      31.719  44.051  18.2530  0.00  0.00     0.000 HD
ATOM     67   O  BGC B   5      31.480  43.438  17.6900  0.00  0.00     0.000 O
ATOM     69  HD  BGC B   5      31.719  44.051  18.2530  0.00  0.00     0.000 HD
ENDBRANCH 58 62
ENDBRANCH 45 58
ENDBRANCH 44 48
ENDBRANCH 31 44
ENDBRANCH 30 34
ENDBRANCH 17 30
ENDBRANCH 16 20
ENDBRANCH 1 16
TORSDOF 8
ENDMDL
MODEL 37
REMARK VINA RESULT:      -0.1     52.384     54.714
ROOT
ATOM      1  C1  BGC B   1       5.072  11.054  65.5410  0.00  0.00     0.000 C
ATOM      2  C2  BGC B   1       4.577  12.246  66.3580  0.00  0.00     0.000 C
ATOM      3  C3  BGC B   1       4.651  11.930  67.8390  0.00  0.00     0.000 C
ATOM      4  C4  BGC B   1       3.946  10.614  68.1440  0.00  0.00     0.000 C
ATOM      5  C5  BGC B   1       4.556   9.527  67.2710  0.00  0.00     0.000 C
ATOM      6  O5  BGC B   1       4.327   9.899  65.8990  0.00  0.00     0.000 O
ATOM      7   O  BGC B   1       5.403  13.388  66.0770  0.00  0.00     0.000 O
ATOM      9  HD  BGC B   1       5.483  13.990  66.6950  0.00  0.00     0.000 HD
ATOM      9   O  BGC B   1       4.059  13.006  68.5720  0.00  0.00     0.000 O
ATOM     11  HD  BGC B   1       4.138  13.608  69.1900  0.00  0.00     0.000 HD
ATOM     11   O  BGC B   1       4.119  10.289  69.5070  0.00  0.00     0.000 O
ATOM     13  HD  BGC B   1       4.199  10.890  70.1250  0.00  0.00     0.000 HD
ATOM     13   C  BGC B   1       3.987   8.133  67.4950  0.00  0.00     0.000 C
ATOM     14   O  BGC B   1       2.572   8.094  67.3450  0.00  0.00     0.000 O
ATOM     16  HD  BGC B   1       2.651   8.696  67.9630  0.00  0.00     0.000 HD
ENDROOT
BRANCH 1 16
ATOM     16  O4  BGC B   2       4.714  11.323  64.1870  0.00  0.00     0.000 O
BRANCH 16 20
ATOM     17  C1  BGC B   2       6.003  10.735  60.3750  0.00  0.00     0.000 C
ATOM     18  C2  BGC B   2       5.413   9.489  61.0200  0.00  0.00     0.000 C
ATOM     19  C3  BGC B   2       4.647   9.909  62.2730  0.00  0.00     0.000 C
ATOM     20  C4  BGC B   2       5.537  10.723  63.1890  0.00  0.00     0.000 C
ATOM     21  C5  BGC B   2       6.257  11.852  62.4500  0.00  0.00     0.000 C
ATOM     22  O5  BGC B   2       6.936  11.295  61.3180  0.00  0.00     0.000 O
ATOM     23   O  BGC B   2       4.507   8.844  60.1090  0.00  0.00     0.000 O
ATOM     25  HD  BGC B   2       4.396   9.349  60.8030  0.00  0.00     0.000 HD
ATOM     25   O  BGC B   2       4.163   8.756  62.9520  0.00  0.00     0.000 O
ATOM     27  HD  BGC B   2       4.051   9.262  63.6460  0.00  0.00     0.000 HD
ATOM     27   C  BGC B   2       7.296  12.558  63.3130  0.00  0.00     0.000 C
ATOM     28   O  BGC B   2       8.271  11.680  63.8500  0.00  0.00     0.000 O
ATOM     30  HD  BGC B   2       8.160  12.186  64.5440  0.00  0.00     0.000 HD
BRANCH 17 30
ATOM     30  O4  BGC B   3       6.795  10.297  59.2870  0.00  0.00     0.000 O
BRANCH 30 34
ATOM     31  C1  BGC B   3       8.005  11.559  55.5630  0.00  0.00     0.000 C
ATOM     32  C2  BGC B   3       8.643  12.315  56.7280  0.00  0.00     0.000 C
ATOM     33  C3  BGC B   3       8.438  11.517  58.0030  0.00  0.00     0.000 C
ATOM     34  C4  BGC B   3       6.951  11.232  58.2150  0.00  0.00     0.000 C
ATOM     35  C5  BGC B   3       6.349  10.611  56.9670  0.00  0.00     0.000 C
ATOM     36  O5  BGC B   3       6.617  11.452  55.8400  0.00  0.00     0.000 O
ATOM     37   O  BGC B   3      10.044  12.448  56.4980  0.00  0.00     0.000 O
ATOM     39  HD  BGC B   3      10.087  12.986  57.1750  0.00  0.00     0.000 HD
ATOM     39   O  BGC B   3       8.965  12.262  59.0900  0.00  0.00     0.000 O
ATOM     41  HD  BGC B   3       9.008  12.801  59.7670  0.00  0.00     0.000 HD
ATOM     41   C  BGC B   3       4.846  10.376  57.0550  0.00  0.00     0.000 C
ATOM     42   O  BGC B   3       4.179  11.588  57.3180  0.00  0.00     0.000 O
ATOM     44  HD  BGC B   3       4.222  12.127  57.9950  0.00  0.00     0.000 HD
BRANCH 31 44
ATOM     44  O4  BGC B   4       8.124  12.373  54.4240  0.00  0.00     0.000 O
BRANCH 44 48
ATOM     45  C1  BGC B   4       8.560  12.098  50.3580  0.00  0.00     0.000 C
ATOM     46  C2  BGC B   4       7.165  11.772  50.8730  0.00  0.00     0.000 C
ATOM     47  C3  BGC B   4       7.020  12.278  52.2870  0.00  0.00     0.000 C
ATOM     48  C4  BGC B   4       8.148  11.730  53.1660  0.00  0.00     0.000 C
ATOM     49  C5  BGC B   4       9.514  12.010  52.5280  0.00  0.00     0.000 C
ATOM     50  O5  BGC B   4       9.542  11.483  51.1930  0.00  0.00     0.000 O
ATOM     51   O  BGC B   4       6.172  12.405  50.0430  0.00  0.00     0.000 O
ATOM     53  HD  BGC B   4       6.157  12.951  50.7150  0.00  0.00     0.000 HD
ATOM     53   O  BGC B   4       5.752  11.850  52.8040  0.00  0.00     0.000 O
ATOM     55  HD  BGC B   4       5.737  12.396  53.4760  0.00  0.00     0.000 HD
ATOM     55   C  BGC B   4      10.691  11.401  53.2690  0.00  0.00     0.000 C
ATOM     56   O  BGC B   4      10.446   9.999  53.3990  0.00  0.00     0.000 O
ATOM     58  HD  BGC B   4      10.431  10.545  54.0710  0.00  0.00     0.000 HD
BRANCH 45 58
ATOM     58  O4  BGC B   5       8.705  11.373  49.1370  0.00  0.00     0.000 O
BRANCH 58 62
ATOM     59  C1  BGC B   5       9.924  11.846  45.2080  0.00  0.00     0.000 C
ATOM     60  C2  BGC B   5      11.041  11.732  46.2250  0.00  0.00     0.000 C
ATOM     61  C3  BGC B   5      10.518  11.156  47.5280  0.00  0.00     0.000 C
ATOM     62  C4  BGC B   5       9.344  11.990  48.0170  0.00  0.00     0.000 C
ATOM     63  C5  BGC B   5       8.286  12.133  46.9130  0.00  0.00     0.000 C
ATOM     64  O5  BGC B   5       8.901  12.685  45.7540  0.00  0.00     0.000 O
ATOM     65   O  BGC B   5       7.729  14.294  47.6340  0.00  0.00     0.000 O
ATOM     67  HD  BGC B   5       7.776  14.809  48.3280  0.00  0.00     0.000 HD
ATOM     67   O  BGC B   5       7.729  14.294  47.6340  0.00  0.00     0.000 O
ATOM     69  HD  BGC B   5       7.776  14.809  48.3280  0.00  0.00     0.000 HD
ENDBRANCH 58 62
ENDBRANCH 45 58
ENDBRANCH 44 48
ENDBRANCH 31 44
ENDBRANCH 30 34
ENDBRANCH 17 30
ENDBRANCH 16 20
ENDBRANCH 1 16
TORSDOF 8
ENDMDL
MODEL 38
REMARK VINA RESULT:      -0.1     44.628     49.137
ROOT
ATOM      1  C1  BGC B   1      13.932  56.923  18.8780  0.00  0.00     0.000 C
ATOM      2  C2  BGC B   1      13.548  57.754  17.6550  0.00  0.00     0.000 C
ATOM      3  C3  BGC B   1      13.060  59.123  18.0880  0.00  0.00     0.000 C
ATOM      4  C4  BGC B   1      11.966  58.998  19.1410  0.00  0.00     0.000 C
ATOM      5  C5  BGC B   1      12.501  58.162  20.2950  0.00  0.00     0.000 C
ATOM      6  O5  BGC B   1      12.828  56.862  19.7700  0.00  0.00     0.000 O
ATOM      7   O  BGC B   1      14.698  57.907  16.8070  0.00  0.00     0.000 O
ATOM      9  HD  BGC B   1      14.738  58.613  16.3070  0.00  0.00     0.000 HD
ATOM      9   O  BGC B   1      12.583  59.829  16.9390  0.00  0.00     0.000 O
ATOM     11  HD  BGC B   1      12.623  60.535  16.4390  0.00  0.00     0.000 HD
ATOM     11   O  BGC B   1      11.605  60.281  19.6030  0.00  0.00     0.000 O
ATOM     13  HD  BGC B   1      11.645  60.987  19.1040  0.00  0.00     0.000 HD
ATOM     13   C  BGC B   1      11.535  57.986  21.4570  0.00  0.00     0.000 C
ATOM     14   O  BGC B   1      10.285  57.441  21.0460  0.00  0.00     0.000 O
ATOM     16  HD  BGC B   1      10.325  58.147  20.5460  0.00  0.00     0.000 HD
ENDROOT
BRANCH 1 16
ATOM     16  O4  BGC B   2      14.107  55.586  18.4120  0.00  0.00     0.000 O
BRANCH 16 20
ATOM     17  C1  BGC B   2      16.319  52.242  19.0930  0.00  0.00     0.000 C
ATOM     18  C2  BGC B   2      15.229  52.476  20.1290  0.00  0.00     0.000 C
ATOM     19  C3  BGC B   2      14.256  53.518  19.5820  0.00  0.00     0.000 C
ATOM     20  C4  BGC B   2      15.000  54.770  19.1660  0.00  0.00     0.000 C
ATOM     21  C5  BGC B   2      16.205  54.464  18.2760  0.00  0.00     0.000 C
ATOM     22  O5  BGC B   2      17.022  53.488  18.9340  0.00  0.00     0.000 O
ATOM     23   O  BGC B   2      14.516  51.253  20.3810  0.00  0.00     0.000 O
ATOM     25  HD  BGC B   2      14.337  51.964  19.9190  0.00  0.00     0.000 HD
ATOM     25   O  BGC B   2      13.278  53.830  20.5670  0.00  0.00     0.000 O
ATOM     27  HD  BGC B   2      13.099  54.541  20.1060  0.00  0.00     0.000 HD
ATOM     27   C  BGC B   2      17.070  55.688  18.0050  0.00  0.00     0.000 C
ATOM     28   O  BGC B   2      17.536  56.319  19.1870  0.00  0.00     0.000 O
ATOM     30  HD  BGC B   2      17.357  57.030  18.7260  0.00  0.00     0.000 HD
BRANCH 17 30
ATOM     30  O4  BGC B   3      17.258  51.360  19.6780  0.00  0.00     0.000 O
BRANCH 30 34
ATOM     31  C1  BGC B   3      19.880  48.381  18.5950  0.00  0.00     0.000 C
ATOM     32  C2  BGC B   3      20.303  49.785  18.1660  0.00  0.00     0.000 C
ATOM     33  C3  BGC B   3      19.493  50.803  18.9490  0.00  0.00     0.000 C
ATOM     34  C4  BGC B   3      17.998  50.543  18.7650  0.00  0.00     0.000 C
ATOM     35  C5  BGC B   3      17.672  49.092  19.0710  0.00  0.00     0.000 C
ATOM     36  O5  BGC B   3      18.504  48.240  18.2770  0.00  0.00     0.000 O
ATOM     37   O  BGC B   3      21.683  49.979  18.4660  0.00  0.00     0.000 O
ATOM     39  HD  BGC B   3      21.659  50.720  18.0200  0.00  0.00     0.000 HD
ATOM     39   O  BGC B   3      19.836  52.101  18.4900  0.00  0.00     0.000 O
ATOM     41  HD  BGC B   3      19.812  52.843  18.0430  0.00  0.00     0.000 HD
ATOM     41   C  BGC B   3      16.214  48.720  18.8250  0.00  0.00     0.000 C
ATOM     42   O  BGC B   3      15.864  48.984  17.4870  0.00  0.00     0.000 O
ATOM     44  HD  BGC B   3      15.841  49.726  17.0400  0.00  0.00     0.000 HD
BRANCH 31 44
ATOM     44  O4  BGC B   4      20.573  47.471  17.7800  0.00  0.00     0.000 O
BRANCH 44 48
ATOM     45  C1  BGC B   4      22.182  43.702  17.8850  0.00  0.00     0.000 C
ATOM     46  C2  BGC B   4      20.664  43.745  17.7870  0.00  0.00     0.000 C
ATOM     47  C3  BGC B   4      20.226  45.125  17.3640  0.00  0.00     0.000 C
ATOM     48  C4  BGC B   4      20.814  46.181  18.3050  0.00  0.00     0.000 C
ATOM     49  C5  BGC B   4      22.333  46.006  18.4290  0.00  0.00     0.000 C
ATOM     50  O5  BGC B   4      22.634  44.664  18.8390  0.00  0.00     0.000 O
ATOM     51   O  BGC B   4      20.206  42.787  16.8130  0.00  0.00     0.000 O
ATOM     53  HD  BGC B   4      20.132  43.509  16.3410  0.00  0.00     0.000 HD
ATOM     53   O  BGC B   4      18.793  45.187  17.4020  0.00  0.00     0.000 O
ATOM     55  HD  BGC B   4      18.719  45.910  16.9300  0.00  0.00     0.000 HD
ATOM     55   C  BGC B   4      22.992  46.936  19.4320  0.00  0.00     0.000 C
ATOM     56   O  BGC B   4      22.335  46.756  20.6890  0.00  0.00     0.000 O
ATOM     58  HD  BGC B   4      22.261  47.478  20.2160  0.00  0.00     0.000 HD
BRANCH 45 58
ATOM     58  O4  BGC B   5      22.498  42.468  18.5290  0.00  0.00     0.000 O
BRANCH 58 62
ATOM     59  C1  BGC B   5      24.968  39.164  18.1700  0.00  0.00     0.000 C
ATOM     60  C2  BGC B   5      25.628  40.412  18.7210  0.00  0.00     0.000 C
ATOM     61  C3  BGC B   5      24.582  41.402  19.1960  0.00  0.00     0.000 C
ATOM     62  C4  BGC B   5      23.604  41.689  18.0670  0.00  0.00     0.000 C
ATOM     63  C5  BGC B   5      23.033  40.381  17.5010  0.00  0.00     0.000 C
ATOM     64  O5  BGC B   5      24.111  39.547  17.0900  0.00  0.00     0.000 O
ATOM     65   O  BGC B   5      22.921  41.285  15.3410  0.00  0.00     0.000 O
ATOM     67  HD  BGC B   5      22.893  42.044  14.9260  0.00  0.00     0.000 HD
ATOM     67   O  BGC B   5      22.921  41.285  15.3410  0.00  0.00     0.000 O
ATOM     69  HD  BGC B   5      22.893  42.044  14.9260  0.00  0.00     0.000 HD
ENDBRANCH 58 62
ENDBRANCH 45 58
ENDBRANCH 44 48
ENDBRANCH 31 44
ENDBRANCH 30 34
ENDBRANCH 17 30
ENDBRANCH 16 20
ENDBRANCH 1 16
TORSDOF 8
ENDMDL
MODEL 39
REMARK VINA RESULT:      -0.1     45.116     49.790
ROOT
ATOM      1  C1  BGC B   1      14.778  57.848  17.8440  0.00  0.00     0.000 C
ATOM      2  C2  BGC B   1      14.363  58.741  16.6750  0.00  0.00     0.000 C
ATOM      3  C3  BGC B   1      13.865  60.077  17.1920  0.00  0.00     0.000 C
ATOM      4  C4  BGC B   1      12.790  59.878  18.2540  0.00  0.00     0.000 C
ATOM      5  C5  BGC B   1      13.355  58.987  19.3500  0.00  0.00     0.000 C
ATOM      6  O5  BGC B   1      13.689  57.723  18.7480  0.00  0.00     0.000 O
ATOM      7   O  BGC B   1      15.496  58.957  15.8190  0.00  0.00     0.000 O
ATOM      9  HD  BGC B   1      15.519  59.691  15.3590  0.00  0.00     0.000 HD
ATOM      9   O  BGC B   1      13.360  60.839  16.0920  0.00  0.00     0.000 O
ATOM     11  HD  BGC B   1      13.383  61.573  15.6320  0.00  0.00     0.000 HD
ATOM     11   O  BGC B   1      12.420  61.128  18.7930  0.00  0.00     0.000 O
ATOM     13  HD  BGC B   1      12.443  61.862  18.3330  0.00  0.00     0.000 HD
ATOM     13   C  BGC B   1      12.411  58.733  20.5160  0.00  0.00     0.000 C
ATOM     14   O  BGC B   1      11.161  58.195  20.0950  0.00  0.00     0.000 O
ATOM     16  HD  BGC B   1      11.184  58.928  19.6350  0.00  0.00     0.000 HD
ENDROOT
BRANCH 1 16
ATOM     16  O4  BGC B   2      14.963  56.542  17.3010  0.00  0.00     0.000 O
BRANCH 16 20
ATOM     17  C1  BGC B   2      17.227  53.196  17.7570  0.00  0.00     0.000 C
ATOM     18  C2  BGC B   2      16.152  53.356  18.8220  0.00  0.00     0.000 C
ATOM     19  C3  BGC B   2      15.157  54.414  18.3510  0.00  0.00     0.000 C
ATOM     20  C4  BGC B   2      15.878  55.698  17.9940  0.00  0.00     0.000 C
ATOM     21  C5  BGC B   2      17.071  55.458  17.0680  0.00  0.00     0.000 C
ATOM     22  O5  BGC B   2      17.912  54.458  17.6570  0.00  0.00     0.000 O
ATOM     23   O  BGC B   2      15.459  52.112  19.0160  0.00  0.00     0.000 O
ATOM     25  HD  BGC B   2      15.264  52.845  18.5990  0.00  0.00     0.000 HD
ATOM     25   O  BGC B   2      14.191  54.657  19.3670  0.00  0.00     0.000 O
ATOM     27  HD  BGC B   2      13.996  55.391  18.9490  0.00  0.00     0.000 HD
ATOM     27   C  BGC B   2      17.917  56.708  16.8530  0.00  0.00     0.000 C
ATOM     28   O  BGC B   2      18.394  57.278  18.0610  0.00  0.00     0.000 O
ATOM     30  HD  BGC B   2      18.199  58.011  17.6430  0.00  0.00     0.000 HD
BRANCH 17 30
ATOM     30  O4  BGC B   3      18.187  52.295  18.2780  0.00  0.00     0.000 O
BRANCH 30 34
ATOM     31  C1  BGC B   3      20.829  49.418  16.9870  0.00  0.00     0.000 C
ATOM     32  C2  BGC B   3      21.227  50.850  16.6310  0.00  0.00     0.000 C
ATOM     33  C3  BGC B   3      20.417  51.811  17.4830  0.00  0.00     0.000 C
ATOM     34  C4  BGC B   3      18.923  51.542  17.3080  0.00  0.00     0.000 C
ATOM     35  C5  BGC B   3      18.620  50.071  17.5380  0.00  0.00     0.000 C
ATOM     36  O5  BGC B   3      19.450  49.276  16.6840  0.00  0.00     0.000 O
ATOM     37   O  BGC B   3      22.609  51.045  16.9200  0.00  0.00     0.000 O
ATOM     39  HD  BGC B   3      22.568  51.810  16.5160  0.00  0.00     0.000 HD
ATOM     39   O  BGC B   3      20.736  53.138  17.0910  0.00  0.00     0.000 O
ATOM     41  HD  BGC B   3      20.695  53.902  16.6870  0.00  0.00     0.000 HD
ATOM     41   C  BGC B   3      17.163  49.693  17.2940  0.00  0.00     0.000 C
ATOM     42   O  BGC B   3      16.788  50.027  15.9790  0.00  0.00     0.000 O
ATOM     44  HD  BGC B   3      16.748  50.792  15.5750  0.00  0.00     0.000 HD
BRANCH 31 44
ATOM     44  O4  BGC B   4      21.520  48.564  16.1110  0.00  0.00     0.000 O
BRANCH 44 48
ATOM     45  C1  BGC B   4      23.179  44.818  15.9800  0.00  0.00     0.000 C
ATOM     46  C2  BGC B   4      21.659  44.845  15.9080  0.00  0.00     0.000 C
ATOM     47  C3  BGC B   4      21.196  46.241  15.5700  0.00  0.00     0.000 C
ATOM     48  C4  BGC B   4      21.787  47.251  16.5590  0.00  0.00     0.000 C
ATOM     49  C5  BGC B   4      23.309  47.090  16.6490  0.00  0.00     0.000 C
ATOM     50  O5  BGC B   4      23.634  45.732  16.9790  0.00  0.00     0.000 O
ATOM     51   O  BGC B   4      21.197  43.938  14.8900  0.00  0.00     0.000 O
ATOM     53  HD  BGC B   4      21.106  44.684  14.4600  0.00  0.00     0.000 HD
ATOM     53   O  BGC B   4      19.763  46.282  15.6350  0.00  0.00     0.000 O
ATOM     55  HD  BGC B   4      19.672  47.028  15.2050  0.00  0.00     0.000 HD
ATOM     55   C  BGC B   4      23.973  47.971  17.6930  0.00  0.00     0.000 C
ATOM     56   O  BGC B   4      23.339  47.713  18.9470  0.00  0.00     0.000 O
ATOM     58  HD  BGC B   4      23.249  48.459  18.5170  0.00  0.00     0.000 HD
BRANCH 45 58
ATOM     58  O4  BGC B   5      23.521  43.554  16.5480  0.00  0.00     0.000 O
BRANCH 58 62
ATOM     59  C1  BGC B   5      26.027  40.310  15.9650  0.00  0.00     0.000 C
ATOM     60  C2  BGC B   5      26.680  41.534  16.5750  0.00  0.00     0.000 C
ATOM     61  C3  BGC B   5      25.629  42.482  17.1210  0.00  0.00     0.000 C
ATOM     62  C4  BGC B   5      24.629  42.818  16.0260  0.00  0.00     0.000 C
ATOM     63  C5  BGC B   5      24.065  41.535  15.3970  0.00  0.00     0.000 C
ATOM     64  O5  BGC B   5      25.147  40.741  14.9220  0.00  0.00     0.000 O
ATOM     65   O  BGC B   5      23.906  42.557  13.2930  0.00  0.00     0.000 O
ATOM     67  HD  BGC B   5      23.862  43.338  12.9210  0.00  0.00     0.000 HD
ATOM     67   O  BGC B   5      23.906  42.557  13.2930  0.00  0.00     0.000 O
ATOM     69  HD  BGC B   5      23.862  43.338  12.9210  0.00  0.00     0.000 HD
ENDBRANCH 58 62
ENDBRANCH 45 58
ENDBRANCH 44 48
ENDBRANCH 31 44
ENDBRANCH 30 34
ENDBRANCH 17 30
ENDBRANCH 16 20
ENDBRANCH 1 16
TORSDOF 8
ENDMDL
MODEL 40
REMARK VINA RESULT:      -0.1     59.787     64.570
ROOT
ATOM      1  C1  BGC B   1      17.082  71.176  16.0740  0.00  0.00     0.000 C
ATOM      2  C2  BGC B   1      16.031  72.047  15.3880  0.00  0.00     0.000 C
ATOM      3  C3  BGC B   1      16.669  72.852  14.2720  0.00  0.00     0.000 C
ATOM      4  C4  BGC B   1      17.887  73.610  14.7840  0.00  0.00     0.000 C
ATOM      5  C5  BGC B   1      18.843  72.613  15.4220  0.00  0.00     0.000 C
ATOM      6  O5  BGC B   1      18.150  71.997  16.5230  0.00  0.00     0.000 O
ATOM      7   O  BGC B   1      15.005  71.204  14.8360  0.00  0.00     0.000 O
ATOM      9  HD  BGC B   1      14.573  71.496  14.1440  0.00  0.00     0.000 HD
ATOM      9   O  BGC B   1      15.695  73.753  13.7370  0.00  0.00     0.000 O
ATOM     11  HD  BGC B   1      15.263  74.045  13.0460  0.00  0.00     0.000 HD
ATOM     11   O  BGC B   1      18.523  74.266  13.7090  0.00  0.00     0.000 O
ATOM     13  HD  BGC B   1      18.091  74.558  13.0170  0.00  0.00     0.000 HD
ATOM     13   C  BGC B   1      20.140  73.214  15.9420  0.00  0.00     0.000 C
ATOM     14   O  BGC B   1      19.915  74.277  16.8630  0.00  0.00     0.000 O
ATOM     16  HD  BGC B   1      19.483  74.569  16.1710  0.00  0.00     0.000 HD
ENDROOT
BRANCH 1 16
ATOM     16  O4  BGC B   2      16.471  70.676  17.2620  0.00  0.00     0.000 O
BRANCH 16 20
ATOM     17  C1  BGC B   2      16.423  67.411  19.6860  0.00  0.00     0.000 C
ATOM     18  C2  BGC B   2      17.659  68.281  19.8560  0.00  0.00     0.000 C
ATOM     19  C3  BGC B   2      17.400  69.629  19.1880  0.00  0.00     0.000 C
ATOM     20  C4  BGC B   2      16.970  69.433  17.7490  0.00  0.00     0.000 C
ATOM     21  C5  BGC B   2      15.847  68.403  17.6110  0.00  0.00     0.000 C
ATOM     22  O5  BGC B   2      16.251  67.198  18.2720  0.00  0.00     0.000 O
ATOM     23   O  BGC B   2      17.926  68.492  21.2530  0.00  0.00     0.000 O
ATOM     25  HD  BGC B   2      17.573  68.982  20.6320  0.00  0.00     0.000 HD
ATOM     25   O  BGC B   2      18.573  70.433  19.2470  0.00  0.00     0.000 O
ATOM     27  HD  BGC B   2      18.219  70.922  18.6260  0.00  0.00     0.000 HD
ATOM     27   C  BGC B   2      15.534  68.056  16.1610  0.00  0.00     0.000 C
ATOM     28   O  BGC B   2      16.662  67.588  15.4400  0.00  0.00     0.000 O
ATOM     30  HD  BGC B   2      16.309  68.078  14.8190  0.00  0.00     0.000 HD
BRANCH 17 30
ATOM     30  O4  BGC B   3      16.742  66.138  20.2150  0.00  0.00     0.000 O
BRANCH 30 34
ATOM     31  C1  BGC B   3      14.921  62.968  22.1020  0.00  0.00     0.000 C
ATOM     32  C2  BGC B   3      14.565  63.116  20.6230  0.00  0.00     0.000 C
ATOM     33  C3  BGC B   3      15.576  64.037  19.9640  0.00  0.00     0.000 C
ATOM     34  C4  BGC B   3      15.635  65.373  20.7040  0.00  0.00     0.000 C
ATOM     35  C5  BGC B   3      15.849  65.145  22.1900  0.00  0.00     0.000 C
ATOM     36  O5  BGC B   3      14.840  64.259  22.6860  0.00  0.00     0.000 O
ATOM     37   O  BGC B   3      14.634  61.841  19.9880  0.00  0.00     0.000 O
ATOM     39  HD  BGC B   3      14.274  62.192  19.2820  0.00  0.00     0.000 HD
ATOM     39   O  BGC B   3      15.194  64.230  18.6110  0.00  0.00     0.000 O
ATOM     41  HD  BGC B   3      14.834  64.580  17.9050  0.00  0.00     0.000 HD
ATOM     41   C  BGC B   3      15.829  66.423  23.0220  0.00  0.00     0.000 C
ATOM     42   O  BGC B   3      14.607  67.099  22.8430  0.00  0.00     0.000 O
ATOM     44  HD  BGC B   3      14.247  67.450  22.1380  0.00  0.00     0.000 HD
BRANCH 31 44
ATOM     44  O4  BGC B   4      13.910  62.196  22.6980  0.00  0.00     0.000 O
BRANCH 44 48
ATOM     45  C1  BGC B   4      13.351  59.475  25.7130  0.00  0.00     0.000 C
ATOM     46  C2  BGC B   4      13.535  60.913  26.1770  0.00  0.00     0.000 C
ATOM     47  C3  BGC B   4      13.336  61.848  25.0100  0.00  0.00     0.000 C
ATOM     48  C4  BGC B   4      14.253  61.452  23.8480  0.00  0.00     0.000 C
ATOM     49  C5  BGC B   4      14.081  59.966  23.5090  0.00  0.00     0.000 C
ATOM     50  O5  BGC B   4      14.297  59.172  24.6860  0.00  0.00     0.000 O
ATOM     51   O  BGC B   4      12.572  61.228  27.2010  0.00  0.00     0.000 O
ATOM     53  HD  BGC B   4      12.194  61.625  26.5300  0.00  0.00     0.000 HD
ATOM     53   O  BGC B   4      13.641  63.186  25.4320  0.00  0.00     0.000 O
ATOM     55  HD  BGC B   4      13.263  63.582  24.7610  0.00  0.00     0.000 HD
ATOM     55   C  BGC B   4      15.034  59.450  22.4460  0.00  0.00     0.000 C
ATOM     56   O  BGC B   4      16.365  59.744  22.8740  0.00  0.00     0.000 O
ATOM     58  HD  BGC B   4      15.987  60.140  22.2040  0.00  0.00     0.000 HD
BRANCH 45 58
ATOM     58  O4  BGC B   5      13.803  58.656  26.7900  0.00  0.00     0.000 O
BRANCH 58 62
ATOM     59  C1  BGC B   5      12.686  55.378  29.0610  0.00  0.00     0.000 C
ATOM     60  C2  BGC B   5      13.216  55.060  27.6770  0.00  0.00     0.000 C
ATOM     61  C3  BGC B   5      13.967  56.249  27.1080  0.00  0.00     0.000 C
ATOM     62  C4  BGC B   5      13.073  57.478  27.1410  0.00  0.00     0.000 C
ATOM     63  C5  BGC B   5      12.506  57.698  28.5510  0.00  0.00     0.000 C
ATOM     64  O5  BGC B   5      11.826  56.517  28.9630  0.00  0.00     0.000 O
ATOM     65   O  BGC B   5      10.497  58.542  27.6860  0.00  0.00     0.000 O
ATOM     67  HD  BGC B   5      10.166  58.900  26.9700  0.00  0.00     0.000 HD
ATOM     67   O  BGC B   5      10.497  58.542  27.6860  0.00  0.00     0.000 O
ATOM     69  HD  BGC B   5      10.166  58.900  26.9700  0.00  0.00     0.000 HD
ENDBRANCH 58 62
ENDBRANCH 45 58
ENDBRANCH 44 48
ENDBRANCH 31 44
ENDBRANCH 30 34
ENDBRANCH 17 30
ENDBRANCH 16 20
ENDBRANCH 1 16
TORSDOF 8
ENDMDL
MODEL 41
REMARK VINA RESULT:      -0.1     44.601     49.229
ROOT
ATOM      1  C1  BGC B   1      18.510  44.140  18.0460  0.00  0.00     0.000 C
ATOM      2  C2  BGC B   1      19.873  44.724  17.6760  0.00  0.00     0.000 C
ATOM      3  C3  BGC B   1      20.562  43.835  16.6590  0.00  0.00     0.000 C
ATOM      4  C4  BGC B   1      20.601  42.391  17.1440  0.00  0.00     0.000 C
ATOM      5  C5  BGC B   1      19.178  41.950  17.4550  0.00  0.00     0.000 C
ATOM      6  O5  BGC B   1      18.681  42.805  18.5010  0.00  0.00     0.000 O
ATOM      7   O  BGC B   1      19.689  46.033  17.1120  0.00  0.00     0.000 O
ATOM      9  HD  BGC B   1      20.283  46.316  16.5490  0.00  0.00     0.000 HD
ATOM      9   O  BGC B   1      21.885  44.331  16.4330  0.00  0.00     0.000 O
ATOM     11  HD  BGC B   1      22.479  44.614  15.8690  0.00  0.00     0.000 HD
ATOM     11   O  BGC B   1      21.150  41.568  16.1380  0.00  0.00     0.000 O
ATOM     13  HD  BGC B   1      21.744  41.851  15.5750  0.00  0.00     0.000 HD
ATOM     13   C  BGC B   1      19.043  40.503  17.9080  0.00  0.00     0.000 C
ATOM     14   O  BGC B   1      19.865  40.208  19.0330  0.00  0.00     0.000 O
ATOM     16  HD  BGC B   1      20.459  40.490  18.4700  0.00  0.00     0.000 HD
ENDROOT
BRANCH 1 16
ATOM     16  O4  BGC B   2      18.061  44.867  19.1870  0.00  0.00     0.000 O
BRANCH 16 20
ATOM     17  C1  BGC B   2      14.669  46.262  20.9430  0.00  0.00     0.000 C
ATOM     18  C2  BGC B   2      14.869  44.763  21.1050  0.00  0.00     0.000 C
ATOM     19  C3  BGC B   2      16.313  44.424  20.7410  0.00  0.00     0.000 C
ATOM     20  C4  BGC B   2      16.649  44.953  19.3620  0.00  0.00     0.000 C
ATOM     21  C5  BGC B   2      16.254  46.420  19.1870  0.00  0.00     0.000 C
ATOM     22  O5  BGC B   2      14.876  46.567  19.5510  0.00  0.00     0.000 O
ATOM     23   O  BGC B   2      14.624  44.376  22.4670  0.00  0.00     0.000 O
ATOM     25  HD  BGC B   2      15.344  44.499  22.0020  0.00  0.00     0.000 HD
ATOM     25   O  BGC B   2      16.506  43.015  20.7890  0.00  0.00     0.000 O
ATOM     27  HD  BGC B   2      17.227  43.139  20.3250  0.00  0.00     0.000 HD
ATOM     27   C  BGC B   2      16.411  46.911  17.7540  0.00  0.00     0.000 C
ATOM     28   O  BGC B   2      15.686  46.137  16.8120  0.00  0.00     0.000 O
ATOM     30  HD  BGC B   2      16.407  46.260  16.3470  0.00  0.00     0.000 HD
BRANCH 17 30
ATOM     30  O4  BGC B   3      13.298  46.520  21.1780  0.00  0.00     0.000 O
BRANCH 30 34
ATOM     31  C1  BGC B   3      10.863  49.470  22.6930  0.00  0.00     0.000 C
ATOM     32  C2  BGC B   3      11.488  49.797  21.3370  0.00  0.00     0.000 C
ATOM     33  C3  BGC B   3      12.015  48.515  20.7170  0.00  0.00     0.000 C
ATOM     34  C4  BGC B   3      12.986  47.826  21.6750  0.00  0.00     0.000 C
ATOM     35  C5  BGC B   3      12.351  47.661  23.0440  0.00  0.00     0.000 C
ATOM     36  O5  BGC B   3      11.890  48.934  23.5110  0.00  0.00     0.000 O
ATOM     37   O  BGC B   3      10.491  50.340  20.4730  0.00  0.00     0.000 O
ATOM     39  HD  BGC B   3      11.115  50.540  19.9060  0.00  0.00     0.000 HD
ATOM     39   O  BGC B   3      12.661  48.839  19.4950  0.00  0.00     0.000 O
ATOM     41  HD  BGC B   3      13.285  49.039  18.9290  0.00  0.00     0.000 HD
ATOM     41   C  BGC B   3      13.283  47.063  24.0920  0.00  0.00     0.000 C
ATOM     42   O  BGC B   3      14.436  47.860  24.2260  0.00  0.00     0.000 O
ATOM     44  HD  BGC B   3      15.060  48.059  23.6600  0.00  0.00     0.000 HD
BRANCH 31 44
ATOM     44  O4  BGC B   4      10.481  50.688  23.2790  0.00  0.00     0.000 O
BRANCH 44 48
ATOM     45  C1  BGC B   4       7.641  52.251  25.7880  0.00  0.00     0.000 C
ATOM     46  C2  BGC B   4       8.715  51.423  26.4780  0.00  0.00     0.000 C
ATOM     47  C3  BGC B   4       9.887  51.241  25.5450  0.00  0.00     0.000 C
ATOM     48  C4  BGC B   4       9.418  50.656  24.2090  0.00  0.00     0.000 C
ATOM     49  C5  BGC B   4       8.268  51.489  23.6310  0.00  0.00     0.000 C
ATOM     50  O5  BGC B   4       7.211  51.592  24.5960  0.00  0.00     0.000 O
ATOM     51   O  BGC B   4       9.164  52.092  27.6720  0.00  0.00     0.000 O
ATOM     53  HD  BGC B   4       9.826  52.286  27.1490  0.00  0.00     0.000 HD
ATOM     53   O  BGC B   4      10.832  50.352  26.1580  0.00  0.00     0.000 O
ATOM     55  HD  BGC B   4      11.494  50.546  25.6340  0.00  0.00     0.000 HD
ATOM     55   C  BGC B   4       7.657  50.920  22.3630  0.00  0.00     0.000 C
ATOM     56   O  BGC B   4       7.250  49.579  22.6390  0.00  0.00     0.000 O
ATOM     58  HD  BGC B   4       7.912  49.773  22.1160  0.00  0.00     0.000 HD
BRANCH 45 58
ATOM     58  O4  BGC B   5       6.483  52.160  26.6180  0.00  0.00     0.000 O
BRANCH 58 62
ATOM     59  C1  BGC B   5       3.563  54.507  28.3810  0.00  0.00     0.000 C
ATOM     60  C2  BGC B   5       3.378  54.243  26.9010  0.00  0.00     0.000 C
ATOM     61  C3  BGC B   5       4.232  53.069  26.4590  0.00  0.00     0.000 C
ATOM     62  C4  BGC B   5       5.680  53.320  26.8470  0.00  0.00     0.000 C
ATOM     63  C5  BGC B   5       5.789  53.660  28.3400  0.00  0.00     0.000 C
ATOM     64  O5  BGC B   5       4.948  54.774  28.6210  0.00  0.00     0.000 O
ATOM     65   O  BGC B   5       7.579  55.123  27.9460  0.00  0.00     0.000 O
ATOM     67  HD  BGC B   5       8.197  55.294  27.3650  0.00  0.00     0.000 HD
ATOM     67   O  BGC B   5       7.579  55.123  27.9460  0.00  0.00     0.000 O
ATOM     69  HD  BGC B   5       8.197  55.294  27.3650  0.00  0.00     0.000 HD
ENDBRANCH 58 62
ENDBRANCH 45 58
ENDBRANCH 44 48
ENDBRANCH 31 44
ENDBRANCH 30 34
ENDBRANCH 17 30
ENDBRANCH 16 20
ENDBRANCH 1 16
TORSDOF 8
ENDMDL
MODEL 42
REMARK VINA RESULT:      -0.1     56.686     61.341
ROOT
ATOM      1  C1  BGC B   1      14.793  71.384   8.6880  0.00  0.00     0.000 C
ATOM      2  C2  BGC B   1      15.670  72.616   8.4690  0.00  0.00     0.000 C
ATOM      3  C3  BGC B   1      14.808  73.861   8.3950  0.00  0.00     0.000 C
ATOM      4  C4  BGC B   1      13.693  73.686   7.3720  0.00  0.00     0.000 C
ATOM      5  C5  BGC B   1      12.904  72.435   7.7300  0.00  0.00     0.000 C
ATOM      6  O5  BGC B   1      13.811  71.320   7.6630  0.00  0.00     0.000 O
ATOM      7   O  BGC B   1      16.591  72.741   9.5650  0.00  0.00     0.000 O
ATOM      9  HD  BGC B   1      16.873  73.535   9.7650  0.00  0.00     0.000 HD
ATOM      9   O  BGC B   1      15.637  74.978   8.0580  0.00  0.00     0.000 O
ATOM     11  HD  BGC B   1      15.920  75.772   8.2570  0.00  0.00     0.000 HD
ATOM     11   O  BGC B   1      12.845  74.813   7.3980  0.00  0.00     0.000 O
ATOM     13  HD  BGC B   1      13.127  75.607   7.5970  0.00  0.00     0.000 HD
ATOM     13   C  BGC B   1      11.716  72.148   6.8230  0.00  0.00     0.000 C
ATOM     14   O  BGC B   1      12.088  72.071   5.4500  0.00  0.00     0.000 O
ATOM     16  HD  BGC B   1      12.371  72.865   5.6500  0.00  0.00     0.000 HD
ENDROOT
BRANCH 1 16
ATOM     16  O4  BGC B   2      15.634  70.253   8.4680  0.00  0.00     0.000 O
BRANCH 16 20
ATOM     17  C1  BGC B   2      16.234  66.436   9.7390  0.00  0.00     0.000 C
ATOM     18  C2  BGC B   2      15.025  66.595   8.8280  0.00  0.00     0.000 C
ATOM     19  C3  BGC B   2      15.114  67.953   8.1360  0.00  0.00     0.000 C
ATOM     20  C4  BGC B   2      15.273  69.059   9.1590  0.00  0.00     0.000 C
ATOM     21  C5  BGC B   2      16.380  68.762  10.1710  0.00  0.00     0.000 C
ATOM     22  O5  BGC B   2      16.144  67.468  10.7390  0.00  0.00     0.000 O
ATOM     23   O  BGC B   2      15.019  65.559   7.8310  0.00  0.00     0.000 O
ATOM     25  HD  BGC B   2      15.235  66.397   7.8190  0.00  0.00     0.000 HD
ATOM     25   O  BGC B   2      13.950  68.173   7.3490  0.00  0.00     0.000 O
ATOM     27  HD  BGC B   2      14.165  69.011   7.3360  0.00  0.00     0.000 HD
ATOM     27   C  BGC B   2      16.426  69.769  11.3130  0.00  0.00     0.000 C
ATOM     28   O  BGC B   2      15.198  69.882  12.0130  0.00  0.00     0.000 O
ATOM     30  HD  BGC B   2      15.414  70.720  12.0010  0.00  0.00     0.000 HD
BRANCH 17 30
ATOM     30  O4  BGC B   3      16.058  65.222  10.4440  0.00  0.00     0.000 O
BRANCH 30 34
ATOM     31  C1  BGC B   3      18.295  62.190  12.0950  0.00  0.00     0.000 C
ATOM     32  C2  BGC B   3      18.364  63.515  12.8540  0.00  0.00     0.000 C
ATOM     33  C3  BGC B   3      17.220  64.402  12.3970  0.00  0.00     0.000 C
ATOM     34  C4  BGC B   3      17.259  64.577  10.8800  0.00  0.00     0.000 C
ATOM     35  C5  BGC B   3      17.334  63.224  10.1940  0.00  0.00     0.000 C
ATOM     36  O5  BGC B   3      18.444  62.486  10.7160  0.00  0.00     0.000 O
ATOM     37   O  BGC B   3      18.218  63.271  14.2510  0.00  0.00     0.000 O
ATOM     39  HD  BGC B   3      18.429  64.098  14.4000  0.00  0.00     0.000 HD
ATOM     39   O  BGC B   3      17.337  65.658  13.0490  0.00  0.00     0.000 O
ATOM     41  HD  BGC B   3      17.549  66.485  13.1980  0.00  0.00     0.000 HD
ATOM     41   C  BGC B   3      17.469  63.304   8.6770  0.00  0.00     0.000 C
ATOM     42   O  BGC B   3      18.615  64.045   8.3310  0.00  0.00     0.000 O
ATOM     44  HD  BGC B   3      18.826  64.872   8.4800  0.00  0.00     0.000 HD
BRANCH 31 44
ATOM     44  O4  BGC B   4      19.423  61.439  12.4660  0.00  0.00     0.000 O
BRANCH 44 48
ATOM     45  C1  BGC B   4      20.612  57.555  13.0170  0.00  0.00     0.000 C
ATOM     46  C2  BGC B   4      20.459  57.975  11.5620  0.00  0.00     0.000 C
ATOM     47  C3  BGC B   4      20.411  59.481  11.4750  0.00  0.00     0.000 C
ATOM     48  C4  BGC B   4      19.318  60.031  12.3960  0.00  0.00     0.000 C
ATOM     49  C5  BGC B   4      19.484  59.481  13.8180  0.00  0.00     0.000 C
ATOM     50  O5  BGC B   4      19.512  58.047  13.7830  0.00  0.00     0.000 O
ATOM     51   O  BGC B   4      21.576  57.495  10.7890  0.00  0.00     0.000 O
ATOM     53  HD  BGC B   4      21.813  58.323  10.8730  0.00  0.00     0.000 HD
ATOM     53   O  BGC B   4      20.136  59.857  10.1180  0.00  0.00     0.000 O
ATOM     55  HD  BGC B   4      20.373  60.685  10.2020  0.00  0.00     0.000 HD
ATOM     55   C  BGC B   4      18.377  59.880  14.7780  0.00  0.00     0.000 C
ATOM     56   O  BGC B   4      17.134  59.481  14.2000  0.00  0.00     0.000 O
ATOM     58  HD  BGC B   4      17.371  60.310  14.2840  0.00  0.00     0.000 HD
BRANCH 45 58
ATOM     58  O4  BGC B   5      20.391  56.145  13.0420  0.00  0.00     0.000 O
BRANCH 58 62
ATOM     59  C1  BGC B   5      22.022  52.633  14.5090  0.00  0.00     0.000 C
ATOM     60  C2  BGC B   5      21.265  53.470  15.5200  0.00  0.00     0.000 C
ATOM     61  C3  BGC B   5      20.379  54.481  14.8180  0.00  0.00     0.000 C
ATOM     62  C4  BGC B   5      21.217  55.311  13.8590  0.00  0.00     0.000 C
ATOM     63  C5  BGC B   5      22.019  54.404  12.9160  0.00  0.00     0.000 C
ATOM     64  O5  BGC B   5      22.807  53.511  13.6960  0.00  0.00     0.000 O
ATOM     65   O  BGC B   5      23.806  55.920  12.8650  0.00  0.00     0.000 O
ATOM     67  HD  BGC B   5      23.989  56.755  13.0050  0.00  0.00     0.000 HD
ATOM     67   O  BGC B   5      23.806  55.920  12.8650  0.00  0.00     0.000 O
ATOM     69  HD  BGC B   5      23.989  56.755  13.0050  0.00  0.00     0.000 HD
ENDBRANCH 58 62
ENDBRANCH 45 58
ENDBRANCH 44 48
ENDBRANCH 31 44
ENDBRANCH 30 34
ENDBRANCH 17 30
ENDBRANCH 16 20
ENDBRANCH 1 16
TORSDOF 8
ENDMDL
MODEL 43
REMARK VINA RESULT:      -0.1     69.120     75.505
ROOT
ATOM      1  C1  BGC B   1      52.795   5.339  58.8640  0.00  0.00     0.000 C
ATOM      2  C2  BGC B   1      52.421   5.850  57.4730  0.00  0.00     0.000 C
ATOM      3  C3  BGC B   1      51.385   4.938  56.8450  0.00  0.00     0.000 C
ATOM      4  C4  BGC B   1      51.849   3.487  56.8850  0.00  0.00     0.000 C
ATOM      5  C5  BGC B   1      52.167   3.123  58.3280  0.00  0.00     0.000 C
ATOM      6  O5  BGC B   1      53.230   3.990  58.7660  0.00  0.00     0.000 O
ATOM      7   O  BGC B   1      51.877   7.176  57.5870  0.00  0.00     0.000 O
ATOM      9  HD  BGC B   1      51.312   7.432  56.9830  0.00  0.00     0.000 HD
ATOM      9   O  BGC B   1      51.153   5.361  55.4980  0.00  0.00     0.000 O
ATOM     11  HD  BGC B   1      50.588   5.618  54.8940  0.00  0.00     0.000 HD
ATOM     11   O  BGC B   1      50.826   2.649  56.3930  0.00  0.00     0.000 O
ATOM     13  HD  BGC B   1      50.261   2.906  55.7890  0.00  0.00     0.000 HD
ATOM     13   C  BGC B   1      52.601   1.680  58.5420  0.00  0.00     0.000 C
ATOM     14   O  BGC B   1      53.714   1.322  57.7290  0.00  0.00     0.000 O
ATOM     16  HD  BGC B   1      53.149   1.579  57.1240  0.00  0.00     0.000 HD
ENDROOT
BRANCH 1 16
ATOM     16  O4  BGC B   2      53.951   6.075  59.2600  0.00  0.00     0.000 O
BRANCH 16 20
ATOM     17  C1  BGC B   2      55.758   7.638  62.5510  0.00  0.00     0.000 C
ATOM     18  C2  BGC B   2      55.897   6.127  62.4370  0.00  0.00     0.000 C
ATOM     19  C3  BGC B   2      55.515   5.711  61.0190  0.00  0.00     0.000 C
ATOM     20  C4  BGC B   2      54.140   6.239  60.6630  0.00  0.00     0.000 C
ATOM     21  C5  BGC B   2      53.990   7.729  60.9750  0.00  0.00     0.000 C
ATOM     22  O5  BGC B   2      54.368   7.950  62.3390  0.00  0.00     0.000 O
ATOM     23   O  BGC B   2      57.255   5.735  62.6930  0.00  0.00     0.000 O
ATOM     25  HD  BGC B   2      56.786   5.824  61.9710  0.00  0.00     0.000 HD
ATOM     25   O  BGC B   2      55.542   4.293  60.9060  0.00  0.00     0.000 O
ATOM     27  HD  BGC B   2      55.072   4.381  60.1840  0.00  0.00     0.000 HD
ATOM     27   C  BGC B   2      52.562   8.230  60.8020  0.00  0.00     0.000 C
ATOM     28   O  BGC B   2      51.616   7.513  61.5780  0.00  0.00     0.000 O
ATOM     30  HD  BGC B   2      51.146   7.601  60.8550  0.00  0.00     0.000 HD
BRANCH 17 30
ATOM     30  O4  BGC B   3      56.009   7.971  63.9030  0.00  0.00     0.000 O
BRANCH 30 34
ATOM     31  C1  BGC B   3      57.577  11.041  66.1500  0.00  0.00     0.000 C
ATOM     32  C2  BGC B   3      56.215  11.342  65.5260  0.00  0.00     0.000 C
ATOM     33  C3  BGC B   3      55.579  10.038  65.0790  0.00  0.00     0.000 C
ATOM     34  C4  BGC B   3      56.519   9.289  64.1350  0.00  0.00     0.000 C
ATOM     35  C5  BGC B   3      57.896   9.150  64.7600  0.00  0.00     0.000 C
ATOM     36  O5  BGC B   3      58.377  10.442  65.1430  0.00  0.00     0.000 O
ATOM     37   O  BGC B   3      55.368  11.946  66.5020  0.00  0.00     0.000 O
ATOM     39  HD  BGC B   3      54.794  12.115  65.8760  0.00  0.00     0.000 HD
ATOM     39   O  BGC B   3      54.351  10.334  64.4320  0.00  0.00     0.000 O
ATOM     41  HD  BGC B   3      53.777  10.504  63.8060  0.00  0.00     0.000 HD
ATOM     41   C  BGC B   3      58.926   8.493  63.8490  0.00  0.00     0.000 C
ATOM     42   O  BGC B   3      59.050   9.223  62.6510  0.00  0.00     0.000 O
ATOM     44  HD  BGC B   3      58.477   9.392  62.0250  0.00  0.00     0.000 HD
BRANCH 31 44
ATOM     44  O4  BGC B   4      58.176  12.274  66.4560  0.00  0.00     0.000 O
BRANCH 44 48
ATOM     45  C1  BGC B   4      60.734  13.973  69.1710  0.00  0.00     0.000 C
ATOM     46  C2  BGC B   4      61.404  13.081  68.1350  0.00  0.00     0.000 C
ATOM     47  C3  BGC B   4      60.454  12.842  66.9870  0.00  0.00     0.000 C
ATOM     48  C4  BGC B   4      59.121  12.294  67.5060  0.00  0.00     0.000 C
ATOM     49  C5  BGC B   4      58.563  13.193  68.6160  0.00  0.00     0.000 C
ATOM     50  O5  BGC B   4      59.544  13.348  69.6530  0.00  0.00     0.000 O
ATOM     51   O  BGC B   4      62.596  13.716  67.6340  0.00  0.00     0.000 O
ATOM     53  HD  BGC B   4      62.065  13.877  66.9690  0.00  0.00     0.000 HD
ATOM     53   O  BGC B   4      61.047  11.897  66.0850  0.00  0.00     0.000 O
ATOM     55  HD  BGC B   4      60.516  12.058  65.4200  0.00  0.00     0.000 HD
ATOM     55   C  BGC B   4      57.300  12.668  69.2740  0.00  0.00     0.000 C
ATOM     56   O  BGC B   4      57.573  11.350  69.7510  0.00  0.00     0.000 O
ATOM     58  HD  BGC B   4      57.042  11.511  69.0860  0.00  0.00     0.000 HD
BRANCH 45 58
ATOM     58  O4  BGC B   5      61.579  13.939  70.3210  0.00  0.00     0.000 O
BRANCH 58 62
ATOM     59  C1  BGC B   5      63.418  16.441  73.0610  0.00  0.00     0.000 C
ATOM     60  C2  BGC B   5      61.945  16.184  73.3020  0.00  0.00     0.000 C
ATOM     61  C3  BGC B   5      61.482  14.966  72.5250  0.00  0.00     0.000 C
ATOM     62  C4  BGC B   5      61.827  15.141  71.0550  0.00  0.00     0.000 C
ATOM     63  C5  BGC B   5      63.316  15.477  70.8850  0.00  0.00     0.000 C
ATOM     64  O5  BGC B   5      63.618  16.634  71.6570  0.00  0.00     0.000 O
ATOM     65   O  BGC B   5      62.867  16.842  69.0330  0.00  0.00     0.000 O
ATOM     67  HD  BGC B   5      62.268  16.980  68.4230  0.00  0.00     0.000 HD
ATOM     67   O  BGC B   5      62.867  16.842  69.0330  0.00  0.00     0.000 O
ATOM     69  HD  BGC B   5      62.268  16.980  68.4230  0.00  0.00     0.000 HD
ENDBRANCH 58 62
ENDBRANCH 45 58
ENDBRANCH 44 48
ENDBRANCH 31 44
ENDBRANCH 30 34
ENDBRANCH 17 30
ENDBRANCH 16 20
ENDBRANCH 1 16
TORSDOF 8
ENDMDL
MODEL 44
REMARK VINA RESULT:      -0.1     51.956     57.513
ROOT
ATOM      1  C1  BGC B   1      24.625  59.212  24.7720  0.00  0.00     0.000 C
ATOM      2  C2  BGC B   1      24.698  60.247  23.6500  0.00  0.00     0.000 C
ATOM      3  C3  BGC B   1      26.142  60.634  23.3920  0.00  0.00     0.000 C
ATOM      4  C4  BGC B   1      26.827  61.051  24.6870  0.00  0.00     0.000 C
ATOM      5  C5  BGC B   1      26.684  59.920  25.6940  0.00  0.00     0.000 C
ATOM      6  O5  BGC B   1      25.277  59.726  25.9260  0.00  0.00     0.000 O
ATOM      7   O  BGC B   1      24.138  59.685  22.4520  0.00  0.00     0.000 O
ATOM      9  HD  BGC B   1      24.428  59.984  21.6930  0.00  0.00     0.000 HD
ATOM      9   O  BGC B   1      26.171  61.696  22.4340  0.00  0.00     0.000 O
ATOM     11  HD  BGC B   1      26.462  61.996  21.6750  0.00  0.00     0.000 HD
ATOM     11   O  BGC B   1      28.193  61.305  24.4390  0.00  0.00     0.000 O
ATOM     13  HD  BGC B   1      28.484  61.604  23.6800  0.00  0.00     0.000 HD
ATOM     13   C  BGC B   1      27.365  60.167  27.0330  0.00  0.00     0.000 C
ATOM     14   O  BGC B   1      26.931  61.377  27.6470  0.00  0.00     0.000 O
ATOM     16  HD  BGC B   1      27.222  61.677  26.8880  0.00  0.00     0.000 HD
ENDROOT
BRANCH 1 16
ATOM     16  O4  BGC B   2      23.249  59.115  25.1350  0.00  0.00     0.000 O
BRANCH 16 20
ATOM     17  C1  BGC B   2      20.485  56.440  26.4550  0.00  0.00     0.000 C
ATOM     18  C2  BGC B   2      21.457  56.897  27.5320  0.00  0.00     0.000 C
ATOM     19  C3  BGC B   2      22.189  58.139  27.0300  0.00  0.00     0.000 C
ATOM     20  C4  BGC B   2      22.831  57.869  25.6850  0.00  0.00     0.000 C
ATOM     21  C5  BGC B   2      21.859  57.232  24.6920  0.00  0.00     0.000 C
ATOM     22  O5  BGC B   2      21.272  56.077  25.3050  0.00  0.00     0.000 O
ATOM     23   O  BGC B   2      20.743  57.225  28.7350  0.00  0.00     0.000 O
ATOM     25  HD  BGC B   2      21.099  57.700  28.1040  0.00  0.00     0.000 HD
ATOM     25   O  BGC B   2      23.175  58.536  27.9760  0.00  0.00     0.000 O
ATOM     27  HD  BGC B   2      23.531  59.011  27.3460  0.00  0.00     0.000 HD
ATOM     27   C  BGC B   2      22.535  56.781  23.4040  0.00  0.00     0.000 C
ATOM     28   O  BGC B   2      23.610  55.880  23.6180  0.00  0.00     0.000 O
ATOM     30  HD  BGC B   2      23.966  56.355  22.9870  0.00  0.00     0.000 HD
BRANCH 17 30
ATOM     30  O4  BGC B   3      19.912  55.228  26.9080  0.00  0.00     0.000 O
BRANCH 30 34
ATOM     31  C1  BGC B   3      16.396  53.111  26.6300  0.00  0.00     0.000 C
ATOM     32  C2  BGC B   3      17.219  53.144  25.3430  0.00  0.00     0.000 C
ATOM     33  C3  BGC B   3      18.632  53.590  25.6760  0.00  0.00     0.000 C
ATOM     34  C4  BGC B   3      18.605  54.932  26.4060  0.00  0.00     0.000 C
ATOM     35  C5  BGC B   3      17.657  54.870  27.5910  0.00  0.00     0.000 C
ATOM     36  O5  BGC B   3      16.368  54.431  27.1470  0.00  0.00     0.000 O
ATOM     37   O  BGC B   3      17.280  51.835  24.7820  0.00  0.00     0.000 O
ATOM     39  HD  BGC B   3      17.640  52.173  24.0710  0.00  0.00     0.000 HD
ATOM     39   O  BGC B   3      19.368  53.693  24.4660  0.00  0.00     0.000 O
ATOM     41  HD  BGC B   3      19.729  54.032  23.7550  0.00  0.00     0.000 HD
ATOM     41   C  BGC B   3      17.496  56.196  28.3260  0.00  0.00     0.000 C
ATOM     42   O  BGC B   3      17.040  57.190  27.4400  0.00  0.00     0.000 O
ATOM     44  HD  BGC B   3      17.400  57.529  26.7290  0.00  0.00     0.000 HD
BRANCH 31 44
ATOM     44  O4  BGC B   4      15.075  52.795  26.2700  0.00  0.00     0.000 O
BRANCH 44 48
ATOM     45  C1  BGC B   4      11.764  50.863  27.7200  0.00  0.00     0.000 C
ATOM     46  C2  BGC B   4      12.040  52.218  28.3550  0.00  0.00     0.000 C
ATOM     47  C3  BGC B   4      13.012  52.988  27.4940  0.00  0.00     0.000 C
ATOM     48  C4  BGC B   4      14.272  52.155  27.2400  0.00  0.00     0.000 C
ATOM     49  C5  BGC B   4      13.903  50.769  26.6980  0.00  0.00     0.000 C
ATOM     50  O5  BGC B   4      12.982  50.128  27.5930  0.00  0.00     0.000 O
ATOM     51   O  BGC B   4      10.816  52.969  28.4680  0.00  0.00     0.000 O
ATOM     53  HD  BGC B   4      11.155  53.363  27.7760  0.00  0.00     0.000 HD
ATOM     53   O  BGC B   4      13.363  54.204  28.1690  0.00  0.00     0.000 O
ATOM     55  HD  BGC B   4      13.702  54.599  27.4770  0.00  0.00     0.000 HD
ATOM     55   C  BGC B   4      15.081  49.828  26.5250  0.00  0.00     0.000 C
ATOM     56   O  BGC B   4      15.757  49.740  27.7800  0.00  0.00     0.000 O
ATOM     58  HD  BGC B   4      16.096  50.135  27.0880  0.00  0.00     0.000 HD
BRANCH 45 58
ATOM     58  O4  BGC B   5      11.057  50.107  28.7030  0.00  0.00     0.000 O
BRANCH 58 62
ATOM     59  C1  BGC B   5       7.687  47.745  29.1670  0.00  0.00     0.000 C
ATOM     60  C2  BGC B   5       8.875  47.063  28.5190  0.00  0.00     0.000 C
ATOM     61  C3  BGC B   5      10.146  47.852  28.7720  0.00  0.00     0.000 C
ATOM     62  C4  BGC B   5       9.953  49.287  28.3110  0.00  0.00     0.000 C
ATOM     63  C5  BGC B   5       8.691  49.894  28.9410  0.00  0.00     0.000 C
ATOM     64  O5  BGC B   5       7.576  49.066  28.6260  0.00  0.00     0.000 O
ATOM     65   O  BGC B   5       8.267  51.175  27.0240  0.00  0.00     0.000 O
ATOM     67  HD  BGC B   5       8.664  51.501  26.3260  0.00  0.00     0.000 HD
ATOM     67   O  BGC B   5       8.267  51.175  27.0240  0.00  0.00     0.000 O
ATOM     69  HD  BGC B   5       8.664  51.501  26.3260  0.00  0.00     0.000 HD
ENDBRANCH 58 62
ENDBRANCH 45 58
ENDBRANCH 44 48
ENDBRANCH 31 44
ENDBRANCH 30 34
ENDBRANCH 17 30
ENDBRANCH 16 20
ENDBRANCH 1 16
TORSDOF 8
ENDMDL
MODEL 45
REMARK VINA RESULT:      -0.1     52.454     57.789
ROOT
ATOM      1  C1  BGC B   1      22.931  59.157  23.7910  0.00  0.00     0.000 C
ATOM      2  C2  BGC B   1      22.967  60.217  22.6910  0.00  0.00     0.000 C
ATOM      3  C3  BGC B   1      24.398  60.464  22.2520  0.00  0.00     0.000 C
ATOM      4  C4  BGC B   1      25.286  60.764  23.4530  0.00  0.00     0.000 C
ATOM      5  C5  BGC B   1      25.155  59.619  24.4470  0.00  0.00     0.000 C
ATOM      6  O5  BGC B   1      23.777  59.561  24.8580  0.00  0.00     0.000 O
ATOM      7   O  BGC B   1      22.200  59.757  21.5650  0.00  0.00     0.000 O
ATOM      9  HD  BGC B   1      22.420  60.051  20.7810  0.00  0.00     0.000 HD
ATOM      9   O  BGC B   1      24.416  61.550  21.3210  0.00  0.00     0.000 O
ATOM     11  HD  BGC B   1      24.635  61.844  20.5370  0.00  0.00     0.000 HD
ATOM     11   O  BGC B   1      26.627  60.885  23.0330  0.00  0.00     0.000 O
ATOM     13  HD  BGC B   1      26.847  61.179  22.2480  0.00  0.00     0.000 HD
ATOM     13   C  BGC B   1      26.025  59.749  25.6890  0.00  0.00     0.000 C
ATOM     14   O  BGC B   1      25.806  60.975  26.3790  0.00  0.00     0.000 O
ATOM     16  HD  BGC B   1      26.025  61.270  25.5950  0.00  0.00     0.000 HD
ENDROOT
BRANCH 1 16
ATOM     16  O4  BGC B   2      21.611  59.188  24.3300  0.00  0.00     0.000 O
BRANCH 16 20
ATOM     17  C1  BGC B   2      18.775  56.764  25.9470  0.00  0.00     0.000 C
ATOM     18  C2  BGC B   2      19.921  57.082  26.8960  0.00  0.00     0.000 C
ATOM     19  C3  BGC B   2      20.708  58.261  26.3280  0.00  0.00     0.000 C
ATOM     20  C4  BGC B   2      21.139  57.973  24.9050  0.00  0.00     0.000 C
ATOM     21  C5  BGC B   2      19.984  57.473  24.0360  0.00  0.00     0.000 C
ATOM     22  O5  BGC B   2      19.364  56.363  24.6960  0.00  0.00     0.000 O
ATOM     23   O  BGC B   2      19.406  57.440  28.1900  0.00  0.00     0.000 O
ATOM     25  HD  BGC B   2      19.726  57.898  27.5270  0.00  0.00     0.000 HD
ATOM     25   O  BGC B   2      21.844  58.522  27.1440  0.00  0.00     0.000 O
ATOM     27  HD  BGC B   2      22.164  58.979  26.4810  0.00  0.00     0.000 HD
ATOM     27   C  BGC B   2      20.437  57.000  22.6600  0.00  0.00     0.000 C
ATOM     28   O  BGC B   2      21.429  55.988  22.7120  0.00  0.00     0.000 O
ATOM     30  HD  BGC B   2      21.749  56.445  22.0490  0.00  0.00     0.000 HD
BRANCH 17 30
ATOM     30  O4  BGC B   3      18.140  55.602  26.4470  0.00  0.00     0.000 O
BRANCH 30 34
ATOM     31  C1  BGC B   3      14.413  53.866  26.5920  0.00  0.00     0.000 C
ATOM     32  C2  BGC B   3      15.063  53.860  25.2090  0.00  0.00     0.000 C
ATOM     33  C3  BGC B   3      16.546  54.148  25.3610  0.00  0.00     0.000 C
ATOM     34  C4  BGC B   3      16.755  55.459  26.1160  0.00  0.00     0.000 C
ATOM     35  C5  BGC B   3      15.967  55.453  27.4140  0.00  0.00     0.000 C
ATOM     36  O5  BGC B   3      14.593  55.164  27.1360  0.00  0.00     0.000 O
ATOM     37   O  BGC B   3      14.911  52.571  24.6180  0.00  0.00     0.000 O
ATOM     39  HD  BGC B   3      15.211  52.895  23.8730  0.00  0.00     0.000 HD
ATOM     39   O  BGC B   3      17.126  54.217  24.0670  0.00  0.00     0.000 O
ATOM     41  HD  BGC B   3      17.425  54.541  23.3220  0.00  0.00     0.000 HD
ATOM     41   C  BGC B   3      16.043  56.762  28.1920  0.00  0.00     0.000 C
ATOM     42   O  BGC B   3      15.584  57.828  27.3950  0.00  0.00     0.000 O
ATOM     44  HD  BGC B   3      15.883  58.152  26.6500  0.00  0.00     0.000 HD
BRANCH 31 44
ATOM     44  O4  BGC B   4      13.032  53.699  26.4030  0.00  0.00     0.000 O
BRANCH 44 48
ATOM     45  C1  BGC B   4       9.750  52.065  28.2380  0.00  0.00     0.000 C
ATOM     46  C2  BGC B   4      10.248  53.363  28.8590  0.00  0.00     0.000 C
ATOM     47  C3  BGC B   4      11.176  54.058  27.8940  0.00  0.00     0.000 C
ATOM     48  C4  BGC B   4      12.298  53.111  27.4580  0.00  0.00     0.000 C
ATOM     49  C5  BGC B   4      11.717  51.789  26.9400  0.00  0.00     0.000 C
ATOM     50  O5  BGC B   4      10.858  51.215  27.9360  0.00  0.00     0.000 O
ATOM     51   O  BGC B   4       9.135  54.229  29.1490  0.00  0.00     0.000 O
ATOM     53  HD  BGC B   4       9.422  54.611  28.4260  0.00  0.00     0.000 HD
ATOM     53   O  BGC B   4      11.738  55.209  28.5410  0.00  0.00     0.000 O
ATOM     55  HD  BGC B   4      12.024  55.591  27.8180  0.00  0.00     0.000 HD
ATOM     55   C  BGC B   4      12.757  50.740  26.5930  0.00  0.00     0.000 C
ATOM     56   O  BGC B   4      13.577  50.540  27.7460  0.00  0.00     0.000 O
ATOM     58  HD  BGC B   4      13.863  50.922  27.0240  0.00  0.00     0.000 HD
BRANCH 45 58
ATOM     58  O4  BGC B   5       9.100  51.352  29.2900  0.00  0.00     0.000 O
BRANCH 58 62
ATOM     59  C1  BGC B   5       5.589  49.331  30.1460  0.00  0.00     0.000 C
ATOM     60  C2  BGC B   5       6.604  48.555  29.3320  0.00  0.00     0.000 C
ATOM     61  C3  BGC B   5       7.973  49.200  29.4320  0.00  0.00     0.000 C
ATOM     62  C4  BGC B   5       7.875  50.663  29.0300  0.00  0.00     0.000 C
ATOM     63  C5  BGC B   5       6.776  51.373  29.8340  0.00  0.00     0.000 C
ATOM     64  O5  BGC B   5       5.549  50.674  29.6520  0.00  0.00     0.000 O
ATOM     65   O  BGC B   5       6.246  52.756  28.0170  0.00  0.00     0.000 O
ATOM     67  HD  BGC B   5       6.581  53.064  27.2800  0.00  0.00     0.000 HD
ATOM     67   O  BGC B   5       6.246  52.756  28.0170  0.00  0.00     0.000 O
ATOM     69  HD  BGC B   5       6.581  53.064  27.2800  0.00  0.00     0.000 HD
ENDBRANCH 58 62
ENDBRANCH 45 58
ENDBRANCH 44 48
ENDBRANCH 31 44
ENDBRANCH 30 34
ENDBRANCH 17 30
ENDBRANCH 16 20
ENDBRANCH 1 16
TORSDOF 8
ENDMDL
MODEL 46
REMARK VINA RESULT:      -0.1     50.109     58.276
ROOT
ATOM      1  C1  BGC B   1      58.706  22.623  19.8570  0.00  0.00     0.000 C
ATOM      2  C2  BGC B   1      58.802  22.505  18.3370  0.00  0.00     0.000 C
ATOM      3  C3  BGC B   1      57.908  23.537  17.6770  0.00  0.00     0.000 C
ATOM      4  C4  BGC B   1      56.491  23.455  18.2320  0.00  0.00     0.000 C
ATOM      5  C5  BGC B   1      56.557  23.603  19.7450  0.00  0.00     0.000 C
ATOM      6  O5  BGC B   1      57.345  22.510  20.2500  0.00  0.00     0.000 O
ATOM      7   O  BGC B   1      60.163  22.730  17.9310  0.00  0.00     0.000 O
ATOM      9  HD  BGC B   1      60.298  23.048  17.1370  0.00  0.00     0.000 HD
ATOM      9   O  BGC B   1      57.915  23.318  16.2630  0.00  0.00     0.000 O
ATOM     11  HD  BGC B   1      58.050  23.636  15.4700  0.00  0.00     0.000 HD
ATOM     11   O  BGC B   1      55.707  24.491  17.6810  0.00  0.00     0.000 O
ATOM     13  HD  BGC B   1      55.842  24.809  16.8880  0.00  0.00     0.000 HD
ATOM     13   C  BGC B   1      55.207  23.592  20.4480  0.00  0.00     0.000 C
ATOM     14   O  BGC B   1      54.445  22.428  20.1390  0.00  0.00     0.000 O
ATOM     16  HD  BGC B   1      54.581  22.747  19.3450  0.00  0.00     0.000 HD
ENDROOT
BRANCH 1 16
ATOM     16  O4  BGC B   2      59.343  21.462  20.3880  0.00  0.00     0.000 O
BRANCH 16 20
ATOM     17  C1  BGC B   2      61.571  20.219  23.5540  0.00  0.00     0.000 C
ATOM     18  C2  BGC B   2      60.099  20.418  23.8830  0.00  0.00     0.000 C
ATOM     19  C3  BGC B   2      59.320  20.520  22.5740  0.00  0.00     0.000 C
ATOM     20  C4  BGC B   2      59.911  21.597  21.6880  0.00  0.00     0.000 C
ATOM     21  C5  BGC B   2      61.428  21.463  21.5420  0.00  0.00     0.000 C
ATOM     22  O5  BGC B   2      62.008  21.397  22.8500  0.00  0.00     0.000 O
ATOM     23   O  BGC B   2      59.606  19.299  24.6380  0.00  0.00     0.000 O
ATOM     25  HD  BGC B   2      59.532  19.539  23.8090  0.00  0.00     0.000 HD
ATOM     25   O  BGC B   2      57.952  20.803  22.8460  0.00  0.00     0.000 O
ATOM     27  HD  BGC B   2      57.878  21.042  22.0170  0.00  0.00     0.000 HD
ATOM     27   C  BGC B   2      62.061  22.642  20.8130  0.00  0.00     0.000 C
ATOM     28   O  BGC B   2      61.778  23.894  21.4160  0.00  0.00     0.000 O
ATOM     30  HD  BGC B   2      61.704  24.133  20.5870  0.00  0.00     0.000 HD
BRANCH 17 30
ATOM     30  O4  BGC B   3      62.272  20.243  24.7840  0.00  0.00     0.000 O
BRANCH 30 34
ATOM     31  C1  BGC B   3      65.625  18.618  26.5280  0.00  0.00     0.000 C
ATOM     32  C2  BGC B   3      65.913  19.667  25.4540  0.00  0.00     0.000 C
ATOM     33  C3  BGC B   3      64.645  20.457  25.1860  0.00  0.00     0.000 C
ATOM     34  C4  BGC B   3      63.503  19.513  24.8120  0.00  0.00     0.000 C
ATOM     35  C5  BGC B   3      63.366  18.412  25.8500  0.00  0.00     0.000 C
ATOM     36  O5  BGC B   3      64.626  17.753  26.0140  0.00  0.00     0.000 O
ATOM     37   O  BGC B   3      66.915  20.567  25.9240  0.00  0.00     0.000 O
ATOM     39  HD  BGC B   3      66.960  20.906  25.1290  0.00  0.00     0.000 HD
ATOM     39   O  BGC B   3      64.900  21.376  24.1350  0.00  0.00     0.000 O
ATOM     41  HD  BGC B   3      64.945  21.715  23.3390  0.00  0.00     0.000 HD
ATOM     41   C  BGC B   3      62.308  17.369  25.5100  0.00  0.00     0.000 C
ATOM     42   O  BGC B   3      62.592  16.777  24.2640  0.00  0.00     0.000 O
ATOM     44  HD  BGC B   3      62.638  17.116  23.4690  0.00  0.00     0.000 HD
BRANCH 31 44
ATOM     44  O4  BGC B   4      66.788  17.844  26.6740  0.00  0.00     0.000 O
BRANCH 44 48
ATOM     45  C1  BGC B   4      68.865  15.736  29.5110  0.00  0.00     0.000 C
ATOM     46  C2  BGC B   4      67.588  15.065  29.0260  0.00  0.00     0.000 C
ATOM     47  C3  BGC B   4      67.135  15.714  27.7410  0.00  0.00     0.000 C
ATOM     48  C4  BGC B   4      67.005  17.229  27.9280  0.00  0.00     0.000 C
ATOM     49  C5  BGC B   4      68.296  17.813  28.5150  0.00  0.00     0.000 C
ATOM     50  O5  BGC B   4      68.629  17.128  29.7310  0.00  0.00     0.000 O
ATOM     51   O  BGC B   4      67.827  13.665  28.7870  0.00  0.00     0.000 O
ATOM     53  HD  BGC B   4      67.841  13.948  27.9680  0.00  0.00     0.000 HD
ATOM     53   O  BGC B   4      65.865  15.161  27.3660  0.00  0.00     0.000 O
ATOM     55  HD  BGC B   4      65.879  15.445  26.5480  0.00  0.00     0.000 HD
ATOM     55   C  BGC B   4      68.223  19.293  28.8440  0.00  0.00     0.000 C
ATOM     56   O  BGC B   4      67.109  19.490  29.7180  0.00  0.00     0.000 O
ATOM     58  HD  BGC B   4      67.123  19.773  28.9000  0.00  0.00     0.000 HD
BRANCH 45 58
ATOM     58  O4  BGC B   5      69.081  15.254  30.8370  0.00  0.00     0.000 O
BRANCH 58 62
ATOM     59  C1  BGC B   5      72.026  13.628  33.2520  0.00  0.00     0.000 C
ATOM     60  C2  BGC B   5      72.099  15.129  33.0590  0.00  0.00     0.000 C
ATOM     61  C3  BGC B   5      70.782  15.663  32.5290  0.00  0.00     0.000 C
ATOM     62  C4  BGC B   5      70.403  14.913  31.2620  0.00  0.00     0.000 C
ATOM     63  C5  BGC B   5      70.425  13.397  31.5030  0.00  0.00     0.000 C
ATOM     64  O5  BGC B   5      71.710  13.027  31.9920  0.00  0.00     0.000 O
ATOM     65   O  BGC B   5      71.153  12.989  29.3120  0.00  0.00     0.000 O
ATOM     67  HD  BGC B   5      71.173  13.354  28.5270  0.00  0.00     0.000 HD
ATOM     67   O  BGC B   5      71.153  12.989  29.3120  0.00  0.00     0.000 O
ATOM     69  HD  BGC B   5      71.173  13.354  28.5270  0.00  0.00     0.000 HD
ENDBRANCH 58 62
ENDBRANCH 45 58
ENDBRANCH 44 48
ENDBRANCH 31 44
ENDBRANCH 30 34
ENDBRANCH 17 30
ENDBRANCH 16 20
ENDBRANCH 1 16
TORSDOF 8
ENDMDL
MODEL 47
REMARK VINA RESULT:      -0.1     87.697     94.613
ROOT
ATOM      1  C1  BGC B   1      51.461  71.507  66.7430  0.00  0.00     0.000 C
ATOM      2  C2  BGC B   1      50.023  71.967  66.9720  0.00  0.00     0.000 C
ATOM      3  C3  BGC B   1      49.979  73.010  68.0720  0.00  0.00     0.000 C
ATOM      4  C4  BGC B   1      50.692  72.507  69.3210  0.00  0.00     0.000 C
ATOM      5  C5  BGC B   1      52.108  72.104  68.9370  0.00  0.00     0.000 C
ATOM      6  O5  BGC B   1      52.006  71.043  67.9700  0.00  0.00     0.000 O
ATOM      7   O  BGC B   1      49.509  72.539  65.7570  0.00  0.00     0.000 O
ATOM      9  HD  BGC B   1      48.891  73.141  65.8260  0.00  0.00     0.000 HD
ATOM      9   O  BGC B   1      48.612  73.324  68.3570  0.00  0.00     0.000 O
ATOM     11  HD  BGC B   1      47.994  73.927  68.4260  0.00  0.00     0.000 HD
ATOM     11   O  BGC B   1      50.730  73.532  70.2900  0.00  0.00     0.000 O
ATOM     13  HD  BGC B   1      50.111  74.135  70.3590  0.00  0.00     0.000 HD
ATOM     13   C  BGC B   1      52.971  71.622  70.0950  0.00  0.00     0.000 C
ATOM     14   O  BGC B   1      52.370  70.544  70.8070  0.00  0.00     0.000 O
ATOM     16  HD  BGC B   1      51.752  71.147  70.8750  0.00  0.00     0.000 HD
ENDROOT
BRANCH 1 16
ATOM     16  O4  BGC B   2      51.382  70.351  65.9100  0.00  0.00     0.000 O
BRANCH 16 20
ATOM     17  C1  BGC B   2      53.385  68.417  62.9470  0.00  0.00     0.000 C
ATOM     18  C2  BGC B   2      54.012  68.244  64.3230  0.00  0.00     0.000 C
ATOM     19  C3  BGC B   2      53.000  68.689  65.3760  0.00  0.00     0.000 C
ATOM     20  C4  BGC B   2      52.514  70.094  65.0840  0.00  0.00     0.000 C
ATOM     21  C5  BGC B   2      52.070  70.266  63.6310  0.00  0.00     0.000 C
ATOM     22  O5  BGC B   2      53.130  69.823  62.7750  0.00  0.00     0.000 O
ATOM     23   O  BGC B   2      54.346  66.864  64.5440  0.00  0.00     0.000 O
ATOM     25  HD  BGC B   2      53.701  67.373  64.8170  0.00  0.00     0.000 HD
ATOM     25   O  BGC B   2      53.590  68.630  66.6700  0.00  0.00     0.000 O
ATOM     27  HD  BGC B   2      52.945  69.139  66.9430  0.00  0.00     0.000 HD
ATOM     27   C  BGC B   2      51.759  71.714  63.2730  0.00  0.00     0.000 C
ATOM     28   O  BGC B   2      52.840  72.599  63.5200  0.00  0.00     0.000 O
ATOM     30  HD  BGC B   2      52.195  73.108  63.7930  0.00  0.00     0.000 HD
BRANCH 17 30
ATOM     30  O4  BGC B   3      54.387  68.104  61.9980  0.00  0.00     0.000 O
BRANCH 30 34
ATOM     31  C1  BGC B   3      54.757  66.534  58.2140  0.00  0.00     0.000 C
ATOM     32  C2  BGC B   3      54.169  67.943  58.2610  0.00  0.00     0.000 C
ATOM     33  C3  BGC B   3      54.453  68.548  59.6250  0.00  0.00     0.000 C
ATOM     34  C4  BGC B   3      53.918  67.637  60.7290  0.00  0.00     0.000 C
ATOM     35  C5  BGC B   3      54.429  66.220  60.5380  0.00  0.00     0.000 C
ATOM     36  O5  BGC B   3      54.106  65.771  59.2180  0.00  0.00     0.000 O
ATOM     37   O  BGC B   3      54.794  68.753  57.2680  0.00  0.00     0.000 O
ATOM     39  HD  BGC B   3      54.208  69.371  57.4270  0.00  0.00     0.000 HD
ATOM     39   O  BGC B   3      53.836  69.826  59.6870  0.00  0.00     0.000 O
ATOM     41  HD  BGC B   3      53.250  70.443  59.8460  0.00  0.00     0.000 HD
ATOM     41   C  BGC B   3      53.872  65.220  61.5450  0.00  0.00     0.000 C
ATOM     42   O  BGC B   3      52.466  65.201  61.4830  0.00  0.00     0.000 O
ATOM     44  HD  BGC B   3      51.880  65.818  61.6420  0.00  0.00     0.000 HD
BRANCH 31 44
ATOM     44  O4  BGC B   4      54.387  65.970  56.9820  0.00  0.00     0.000 O
BRANCH 44 48
ATOM     45  C1  BGC B   4      55.752  63.331  54.1570  0.00  0.00     0.000 C
ATOM     46  C2  BGC B   4      55.252  62.688  55.4430  0.00  0.00     0.000 C
ATOM     47  C3  BGC B   4      54.431  63.687  56.2200  0.00  0.00     0.000 C
ATOM     48  C4  BGC B   4      55.232  64.974  56.4430  0.00  0.00     0.000 C
ATOM     49  C5  BGC B   4      55.786  65.502  55.1140  0.00  0.00     0.000 C
ATOM     50  O5  BGC B   4      56.550  64.475  54.4650  0.00  0.00     0.000 O
ATOM     51   O  BGC B   4      54.433  61.544  55.1350  0.00  0.00     0.000 O
ATOM     53  HD  BGC B   4      53.808  62.113  55.3250  0.00  0.00     0.000 HD
ATOM     53   O  BGC B   4      54.078  63.111  57.4850  0.00  0.00     0.000 O
ATOM     55  HD  BGC B   4      53.454  63.680  57.6750  0.00  0.00     0.000 HD
ATOM     55   C  BGC B   4      56.692  66.713  55.2480  0.00  0.00     0.000 C
ATOM     56   O  BGC B   4      57.739  66.374  56.1580  0.00  0.00     0.000 O
ATOM     58  HD  BGC B   4      57.115  66.943  56.3480  0.00  0.00     0.000 HD
BRANCH 45 58
ATOM     58  O4  BGC B   5      56.715  62.428  53.6160  0.00  0.00     0.000 O
BRANCH 58 62
ATOM     59  C1  BGC B   5      57.772  60.548  50.0810  0.00  0.00     0.000 C
ATOM     60  C2  BGC B   5      58.171  62.005  50.1860  0.00  0.00     0.000 C
ATOM     61  C3  BGC B   5      58.121  62.468  51.6300  0.00  0.00     0.000 C
ATOM     62  C4  BGC B   5      56.745  62.181  52.2080  0.00  0.00     0.000 C
ATOM     63  C5  BGC B   5      56.367  60.707  51.9980  0.00  0.00     0.000 C
ATOM     64  O5  BGC B   5      56.450  60.404  50.6100  0.00  0.00     0.000 O
ATOM     65   O  BGC B   5      54.103  61.254  51.7340  0.00  0.00     0.000 O
ATOM     67  HD  BGC B   5      53.532  61.878  51.9190  0.00  0.00     0.000 HD
ATOM     67   O  BGC B   5      54.103  61.254  51.7340  0.00  0.00     0.000 O
ATOM     69  HD  BGC B   5      53.532  61.878  51.9190  0.00  0.00     0.000 HD
ENDBRANCH 58 62
ENDBRANCH 45 58
ENDBRANCH 44 48
ENDBRANCH 31 44
ENDBRANCH 30 34
ENDBRANCH 17 30
ENDBRANCH 16 20
ENDBRANCH 1 16
TORSDOF 8
ENDMDL
MODEL 48
REMARK VINA RESULT:      -0.1     89.672     96.443
ROOT
ATOM      1  C1  BGC B   1      51.401  71.619  69.2430  0.00  0.00     0.000 C
ATOM      2  C2  BGC B   1      49.955  72.111  69.2250  0.00  0.00     0.000 C
ATOM      3  C3  BGC B   1      49.807  73.324  70.1230  0.00  0.00     0.000 C
ATOM      4  C4  BGC B   1      50.364  73.039  71.5120  0.00  0.00     0.000 C
ATOM      5  C5  BGC B   1      51.807  72.576  71.3660  0.00  0.00     0.000 C
ATOM      6  O5  BGC B   1      51.794  71.368  70.5850  0.00  0.00     0.000 O
ATOM      7   O  BGC B   1      49.594  72.470  67.8810  0.00  0.00     0.000 O
ATOM      9  HD  BGC B   1      48.984  73.075  67.7760  0.00  0.00     0.000 HD
ATOM      9   O  BGC B   1      48.423  73.682  70.1920  0.00  0.00     0.000 O
ATOM     11  HD  BGC B   1      47.813  74.287  70.0870  0.00  0.00     0.000 HD
ATOM     11   O  BGC B   1      50.311  74.212  72.2940  0.00  0.00     0.000 O
ATOM     13  HD  BGC B   1      49.701  74.817  72.1890  0.00  0.00     0.000 HD
ATOM     13   C  BGC B   1      52.523  72.296  72.6800  0.00  0.00     0.000 C
ATOM     14   O  BGC B   1      51.824  71.354  73.4880  0.00  0.00     0.000 O
ATOM     16  HD  BGC B   1      51.214  71.959  73.3830  0.00  0.00     0.000 HD
ENDROOT
BRANCH 1 16
ATOM     16  O4  BGC B   2      51.394  70.339  68.6120  0.00  0.00     0.000 O
BRANCH 16 20
ATOM     17  C1  BGC B   2      53.683  67.933  66.2650  0.00  0.00     0.000 C
ATOM     18  C2  BGC B   2      54.147  67.995  67.7130  0.00  0.00     0.000 C
ATOM     19  C3  BGC B   2      53.030  68.610  68.5530  0.00  0.00     0.000 C
ATOM     20  C4  BGC B   2      52.608  69.946  67.9770  0.00  0.00     0.000 C
ATOM     21  C5  BGC B   2      52.335  69.872  66.4740  0.00  0.00     0.000 C
ATOM     22  O5  BGC B   2      53.477  69.291  65.8310  0.00  0.00     0.000 O
ATOM     23   O  BGC B   2      54.426  66.672  68.1990  0.00  0.00     0.000 O
ATOM     25  HD  BGC B   2      53.764  67.219  68.3070  0.00  0.00     0.000 HD
ATOM     25   O  BGC B   2      53.469  68.771  69.8980  0.00  0.00     0.000 O
ATOM     27  HD  BGC B   2      52.807  69.318  70.0060  0.00  0.00     0.000 HD
ATOM     27   C  BGC B   2      52.095  71.239  65.8450  0.00  0.00     0.000 C
ATOM     28   O  BGC B   2      53.158  72.152  66.0630  0.00  0.00     0.000 O
ATOM     30  HD  BGC B   2      52.496  72.700  66.1710  0.00  0.00     0.000 HD
BRANCH 17 30
ATOM     30  O4  BGC B   3      54.780  67.465  65.5030  0.00  0.00     0.000 O
BRANCH 30 34
ATOM     31  C1  BGC B   3      55.547  65.280  62.1030  0.00  0.00     0.000 C
ATOM     32  C2  BGC B   3      54.984  66.678  61.8460  0.00  0.00     0.000 C
ATOM     33  C3  BGC B   3      55.123  67.504  63.1120  0.00  0.00     0.000 C
ATOM     34  C4  BGC B   3      54.450  66.792  64.2850  0.00  0.00     0.000 C
ATOM     35  C5  BGC B   3      54.951  65.363  64.3930  0.00  0.00     0.000 C
ATOM     36  O5  BGC B   3      54.771  64.698  63.1380  0.00  0.00     0.000 O
ATOM     37   O  BGC B   3      55.734  67.309  60.8100  0.00  0.00     0.000 O
ATOM     39  HD  BGC B   3      55.146  67.945  60.7950  0.00  0.00     0.000 HD
ATOM     39   O  BGC B   3      54.529  68.774  62.8890  0.00  0.00     0.000 O
ATOM     41  HD  BGC B   3      53.941  69.409  62.8730  0.00  0.00     0.000 HD
ATOM     41   C  BGC B   3      54.264  64.546  65.4820  0.00  0.00     0.000 C
ATOM     42   O  BGC B   3      52.874  64.517  65.2630  0.00  0.00     0.000 O
ATOM     44  HD  BGC B   3      52.286  65.152  65.2480  0.00  0.00     0.000 HD
BRANCH 31 44
ATOM     44  O4  BGC B   4      55.308  64.518  60.9480  0.00  0.00     0.000 O
BRANCH 44 48
ATOM     45  C1  BGC B   4      56.933  61.441  58.7800  0.00  0.00     0.000 C
ATOM     46  C2  BGC B   4      56.279  61.023  60.0900  0.00  0.00     0.000 C
ATOM     47  C3  BGC B   4      55.394  62.139  60.5890  0.00  0.00     0.000 C
ATOM     48  C4  BGC B   4      56.190  63.445  60.6840  0.00  0.00     0.000 C
ATOM     49  C5  BGC B   4      56.900  63.742  59.3580  0.00  0.00     0.000 C
ATOM     50  O5  BGC B   4      57.714  62.620  58.9830  0.00  0.00     0.000 O
ATOM     51   O  BGC B   4      55.477  59.844  59.8860  0.00  0.00     0.000 O
ATOM     53  HD  BGC B   4      54.846  60.437  59.9040  0.00  0.00     0.000 HD
ATOM     53   O  BGC B   4      54.889  61.784  61.8840  0.00  0.00     0.000 O
ATOM     55  HD  BGC B   4      54.258  62.377  61.9020  0.00  0.00     0.000 HD
ATOM     55   C  BGC B   4      57.809  64.957  59.3910  0.00  0.00     0.000 C
ATOM     56   O  BGC B   4      58.739  64.777  60.4600  0.00  0.00     0.000 O
ATOM     58  HD  BGC B   4      58.109  65.370  60.4790  0.00  0.00     0.000 HD
BRANCH 45 58
ATOM     58  O4  BGC B   5      57.934  60.459  58.5130  0.00  0.00     0.000 O
BRANCH 58 62
ATOM     59  C1  BGC B   5      59.348  58.011  55.4870  0.00  0.00     0.000 C
ATOM     60  C2  BGC B   5      59.762  59.466  55.3930  0.00  0.00     0.000 C
ATOM     61  C3  BGC B   5      59.557  60.165  56.7230  0.00  0.00     0.000 C
ATOM     62  C4  BGC B   5      58.119  59.979  57.1790  0.00  0.00     0.000 C
ATOM     63  C5  BGC B   5      57.739  58.491  57.1770  0.00  0.00     0.000 C
ATOM     64  O5  BGC B   5      57.972  57.958  55.8770  0.00  0.00     0.000 O
ATOM     65   O  BGC B   5      55.530  58.986  56.5650  0.00  0.00     0.000 O
ATOM     67  HD  BGC B   5      54.954  59.632  56.5760  0.00  0.00     0.000 HD
ATOM     67   O  BGC B   5      55.530  58.986  56.5650  0.00  0.00     0.000 O
ATOM     69  HD  BGC B   5      54.954  59.632  56.5760  0.00  0.00     0.000 HD
ENDBRANCH 58 62
ENDBRANCH 45 58
ENDBRANCH 44 48
ENDBRANCH 31 44
ENDBRANCH 30 34
ENDBRANCH 17 30
ENDBRANCH 16 20
ENDBRANCH 1 16
TORSDOF 8
ENDMDL
MODEL 49
REMARK VINA RESULT:      -0.1     43.398     45.308
ROOT
ATOM      1  C1  BGC B   1      10.422  21.190  50.2120  0.00  0.00     0.000 C
ATOM      2  C2  BGC B   1      10.791  21.678  51.6120  0.00  0.00     0.000 C
ATOM      3  C3  BGC B   1      10.710  20.532  52.6010  0.00  0.00     0.000 C
ATOM      4  C4  BGC B   1       9.360  19.833  52.5080  0.00  0.00     0.000 C
ATOM      5  C5  BGC B   1       9.143  19.394  51.0670  0.00  0.00     0.000 C
ATOM      6  O5  BGC B   1       9.139  20.580  50.2520  0.00  0.00     0.000 O
ATOM      7   O  BGC B   1      12.133  22.194  51.5940  0.00  0.00     0.000 O
ATOM      9  HD  BGC B   1      12.586  22.160  52.3310  0.00  0.00     0.000 HD
ATOM      9   O  BGC B   1      10.929  21.043  53.9200  0.00  0.00     0.000 O
ATOM     11  HD  BGC B   1      11.383  21.009  54.6560  0.00  0.00     0.000 HD
ATOM     11   O  BGC B   1       9.348  18.709  53.3600  0.00  0.00     0.000 O
ATOM     13  HD  BGC B   1       9.801  18.675  54.0970  0.00  0.00     0.000 HD
ATOM     13   C  BGC B   1       7.849  18.632  50.8190  0.00  0.00     0.000 C
ATOM     14   O  BGC B   1       6.701  19.359  51.2480  0.00  0.00     0.000 O
ATOM     16  HD  BGC B   1       7.155  19.325  51.9850  0.00  0.00     0.000 HD
ENDROOT
BRANCH 1 16
ATOM     16  O4  BGC B   2      10.253  22.360  49.4140  0.00  0.00     0.000 O
BRANCH 16 20
ATOM     17  C1  BGC B   2      10.770  23.728  45.6200  0.00  0.00     0.000 C
ATOM     18  C2  BGC B   2       9.565  22.814  45.7810  0.00  0.00     0.000 C
ATOM     19  C3  BGC B   2       9.263  22.667  47.2710  0.00  0.00     0.000 C
ATOM     20  C4  BGC B   2      10.498  22.208  48.0180  0.00  0.00     0.000 C
ATOM     21  C5  BGC B   2      11.732  23.045  47.6760  0.00  0.00     0.000 C
ATOM     22  O5  BGC B   2      11.884  23.070  46.2510  0.00  0.00     0.000 O
ATOM     23   O  BGC B   2       8.421  23.384  45.1230  0.00  0.00     0.000 O
ATOM     25  HD  BGC B   2       8.668  23.331  45.9520  0.00  0.00     0.000 HD
ATOM     25   O  BGC B   2       8.200  21.741  47.4600  0.00  0.00     0.000 O
ATOM     27  HD  BGC B   2       8.447  21.689  48.2890  0.00  0.00     0.000 HD
ATOM     27   C  BGC B   2      13.016  22.481  48.2700  0.00  0.00     0.000 C
ATOM     28   O  BGC B   2      13.268  21.137  47.8930  0.00  0.00     0.000 O
ATOM     30  HD  BGC B   2      13.515  21.085  48.7210  0.00  0.00     0.000 HD
BRANCH 17 30
ATOM     30  O4  BGC B   3      11.087  23.749  44.2400  0.00  0.00     0.000 O
BRANCH 30 34
ATOM     31  C1  BGC B   3      12.682  26.277  41.4140  0.00  0.00     0.000 C
ATOM     32  C2  BGC B   3      13.692  25.739  42.4270  0.00  0.00     0.000 C
ATOM     33  C3  BGC B   3      13.085  24.544  43.1400  0.00  0.00     0.000 C
ATOM     34  C4  BGC B   3      11.748  24.928  43.7710  0.00  0.00     0.000 C
ATOM     35  C5  BGC B   3      10.846  25.587  42.7410  0.00  0.00     0.000 C
ATOM     36  O5  BGC B   3      11.535  26.688  42.1410  0.00  0.00     0.000 O
ATOM     37   O  BGC B   3      14.868  25.309  41.7440  0.00  0.00     0.000 O
ATOM     39  HD  BGC B   3      15.258  25.213  42.5110  0.00  0.00     0.000 HD
ATOM     39   O  BGC B   3      13.998  24.099  44.1310  0.00  0.00     0.000 O
ATOM     41  HD  BGC B   3      14.389  24.003  44.8980  0.00  0.00     0.000 HD
ATOM     41   C  BGC B   3       9.522  26.087  43.3070  0.00  0.00     0.000 C
ATOM     42   O  BGC B   3       9.755  27.004  44.3490  0.00  0.00     0.000 O
ATOM     44  HD  BGC B   3      10.145  26.909  45.1160  0.00  0.00     0.000 HD
BRANCH 31 44
ATOM     44  O4  BGC B   4      13.236  27.438  40.8510  0.00  0.00     0.000 O
BRANCH 44 48
ATOM     45  C1  BGC B   4      13.251  29.576  37.3530  0.00  0.00     0.000 C
ATOM     46  C2  BGC B   4      11.975  29.704  38.1740  0.00  0.00     0.000 C
ATOM     47  C3  BGC B   4      12.230  29.217  39.5790  0.00  0.00     0.000 C
ATOM     48  C4  BGC B   4      12.809  27.799  39.5530  0.00  0.00     0.000 C
ATOM     49  C5  BGC B   4      14.028  27.731  38.6260  0.00  0.00     0.000 C
ATOM     50  O5  BGC B   4      13.672  28.211  37.3210  0.00  0.00     0.000 O
ATOM     51   O  BGC B   4      11.556  31.081  38.2220  0.00  0.00     0.000 O
ATOM     53  HD  BGC B   4      11.909  31.017  39.0110  0.00  0.00     0.000 HD
ATOM     53   O  BGC B   4      10.990  29.221  40.3020  0.00  0.00     0.000 O
ATOM     55  HD  BGC B   4      11.343  29.157  41.0900  0.00  0.00     0.000 HD
ATOM     55   C  BGC B   4      14.602  26.337  38.4450  0.00  0.00     0.000 C
ATOM     56   O  BGC B   4      13.547  25.487  37.9920  0.00  0.00     0.000 O
ATOM     58  HD  BGC B   4      13.899  25.423  38.7800  0.00  0.00     0.000 HD
BRANCH 45 58
ATOM     58  O4  BGC B   5      12.868  29.805  35.9970  0.00  0.00     0.000 O
BRANCH 58 62
ATOM     59  C1  BGC B   5      13.952  31.986  32.6480  0.00  0.00     0.000 C
ATOM     60  C2  BGC B   5      14.793  30.755  32.9230  0.00  0.00     0.000 C
ATOM     61  C3  BGC B   5      14.079  29.827  33.8860  0.00  0.00     0.000 C
ATOM     62  C4  BGC B   5      13.706  30.591  35.1460  0.00  0.00     0.000 C
ATOM     63  C5  BGC B   5      12.926  31.866  34.7950  0.00  0.00     0.000 C
ATOM     64  O5  BGC B   5      13.703  32.647  33.8930  0.00  0.00     0.000 O
ATOM     65   O  BGC B   5      13.874  33.025  36.5990  0.00  0.00     0.000 O
ATOM     67  HD  BGC B   5      14.261  32.890  37.3620  0.00  0.00     0.000 HD
ATOM     67   O  BGC B   5      13.874  33.025  36.5990  0.00  0.00     0.000 O
ATOM     69  HD  BGC B   5      14.261  32.890  37.3620  0.00  0.00     0.000 HD
ENDBRANCH 58 62
ENDBRANCH 45 58
ENDBRANCH 44 48
ENDBRANCH 31 44
ENDBRANCH 30 34
ENDBRANCH 17 30
ENDBRANCH 16 20
ENDBRANCH 1 16
TORSDOF 8
ENDMDL
MODEL 50
REMARK VINA RESULT:      -0.1     61.984     72.416
ROOT
ATOM      1  C1  BGC B   1      63.833  59.249  27.0080  0.00  0.00     0.000 C
ATOM      2  C2  BGC B   1      64.699  58.861  28.2050  0.00  0.00     0.000 C
ATOM      3  C3  BGC B   1      65.449  60.073  28.7210  0.00  0.00     0.000 C
ATOM      4  C4  BGC B   1      66.201  60.763  27.5900  0.00  0.00     0.000 C
ATOM      5  C5  BGC B   1      65.209  61.100  26.4860  0.00  0.00     0.000 C
ATOM      6  O5  BGC B   1      64.650  59.859  26.0180  0.00  0.00     0.000 O
ATOM      7   O  BGC B   1      63.858  58.345  29.2500  0.00  0.00     0.000 O
ATOM      9  HD  BGC B   1      64.132  58.430  30.0670  0.00  0.00     0.000 HD
ATOM      9   O  BGC B   1      66.349  59.657  29.7520  0.00  0.00     0.000 O
ATOM     11  HD  BGC B   1      66.623  59.742  30.5690  0.00  0.00     0.000 HD
ATOM     11   O  BGC B   1      66.803  61.945  28.0730  0.00  0.00     0.000 O
ATOM     13  HD  BGC B   1      67.077  62.030  28.8900  0.00  0.00     0.000 HD
ATOM     13   C  BGC B   1      65.804  61.842  25.2980  0.00  0.00     0.000 C
ATOM     14   O  BGC B   1      66.905  61.148  24.7200  0.00  0.00     0.000 O
ATOM     16  HD  BGC B   1      67.179  61.233  25.5370  0.00  0.00     0.000 HD
ENDROOT
BRANCH 1 16
ATOM     16  O4  BGC B   2      63.391  58.026  26.4220  0.00  0.00     0.000 O
BRANCH 16 20
ATOM     17  C1  BGC B   2      60.219  56.393  24.4710  0.00  0.00     0.000 C
ATOM     18  C2  BGC B   2      61.061  57.317  23.6030  0.00  0.00     0.000 C
ATOM     19  C3  BGC B   2      62.391  57.568  24.3110  0.00  0.00     0.000 C
ATOM     20  C4  BGC B   2      62.154  58.079  25.7180  0.00  0.00     0.000 C
ATOM     21  C5  BGC B   2      61.151  57.219  26.4880  0.00  0.00     0.000 C
ATOM     22  O5  BGC B   2      59.959  57.093  25.7020  0.00  0.00     0.000 O
ATOM     23   O  BGC B   2      61.315  56.702  22.3290  0.00  0.00     0.000 O
ATOM     25  HD  BGC B   2      61.792  56.813  23.0440  0.00  0.00     0.000 HD
ATOM     25   O  BGC B   2      63.164  58.506  23.5700  0.00  0.00     0.000 O
ATOM     27  HD  BGC B   2      63.640  58.617  24.2850  0.00  0.00     0.000 HD
ATOM     27   C  BGC B   2      60.759  57.823  27.8310  0.00  0.00     0.000 C
ATOM     28   O  BGC B   2      60.235  59.137  27.7250  0.00  0.00     0.000 O
ATOM     30  HD  BGC B   2      60.711  59.248  28.4400  0.00  0.00     0.000 HD
BRANCH 17 30
ATOM     30  O4  BGC B   3      58.958  56.275  23.8390  0.00  0.00     0.000 O
BRANCH 30 34
ATOM     31  C1  BGC B   3      55.903  53.557  23.3930  0.00  0.00     0.000 C
ATOM     32  C2  BGC B   3      56.011  54.166  24.7900  0.00  0.00     0.000 C
ATOM     33  C3  BGC B   3      56.882  55.408  24.7190  0.00  0.00     0.000 C
ATOM     34  C4  BGC B   3      58.239  55.066  24.1060  0.00  0.00     0.000 C
ATOM     35  C5  BGC B   3      58.056  54.336  22.7880  0.00  0.00     0.000 C
ATOM     36  O5  BGC B   3      57.214  53.195  22.9890  0.00  0.00     0.000 O
ATOM     37   O  BGC B   3      54.714  54.550  25.2430  0.00  0.00     0.000 O
ATOM     39  HD  BGC B   3      55.051  54.700  26.0270  0.00  0.00     0.000 HD
ATOM     39   O  BGC B   3      57.040  55.923  26.0320  0.00  0.00     0.000 O
ATOM     41  HD  BGC B   3      57.376  56.073  26.8160  0.00  0.00     0.000 HD
ATOM     41   C  BGC B   3      59.360  53.874  22.1480  0.00  0.00     0.000 C
ATOM     42   O  BGC B   3      60.063  53.033  23.0320  0.00  0.00     0.000 O
ATOM     44  HD  BGC B   3      60.400  53.183  23.8150  0.00  0.00     0.000 HD
BRANCH 31 44
ATOM     44  O4  BGC B   4      55.179  52.359  23.5170  0.00  0.00     0.000 O
BRANCH 44 48
ATOM     45  C1  BGC B   4      52.583  49.984  21.4130  0.00  0.00     0.000 C
ATOM     46  C2  BGC B   4      54.028  49.927  20.9370  0.00  0.00     0.000 C
ATOM     47  C3  BGC B   4      54.930  50.508  21.9980  0.00  0.00     0.000 C
ATOM     48  C4  BGC B   4      54.461  51.914  22.3840  0.00  0.00     0.000 C
ATOM     49  C5  BGC B   4      52.972  51.904  22.7520  0.00  0.00     0.000 C
ATOM     50  O5  BGC B   4      52.211  51.339  21.6740  0.00  0.00     0.000 O
ATOM     51   O  BGC B   4      54.412  48.562  20.6900  0.00  0.00     0.000 O
ATOM     53  HD  BGC B   4      54.800  48.676  21.4550  0.00  0.00     0.000 HD
ATOM     53   O  BGC B   4      56.268  50.568  21.4850  0.00  0.00     0.000 O
ATOM     55  HD  BGC B   4      56.656  50.683  22.2510  0.00  0.00     0.000 HD
ATOM     55   C  BGC B   4      52.386  53.275  23.0370  0.00  0.00     0.000 C
ATOM     56   O  BGC B   4      52.644  54.104  21.9010  0.00  0.00     0.000 O
ATOM     58  HD  BGC B   4      53.032  54.218  22.6670  0.00  0.00     0.000 HD
BRANCH 45 58
ATOM     58  O4  BGC B   5      51.783  49.666  20.2750  0.00  0.00     0.000 O
BRANCH 58 62
ATOM     59  C1  BGC B   5      48.622  47.263  19.1000  0.00  0.00     0.000 C
ATOM     60  C2  BGC B   5      48.241  48.495  19.8970  0.00  0.00     0.000 C
ATOM     61  C3  BGC B   5      49.383  49.493  19.9120  0.00  0.00     0.000 C
ATOM     62  C4  BGC B   5      50.644  48.815  20.4220  0.00  0.00     0.000 C
ATOM     63  C5  BGC B   5      50.929  47.533  19.6260  0.00  0.00     0.000 C
ATOM     64  O5  BGC B   5      49.788  46.685  19.6950  0.00  0.00     0.000 O
ATOM     65   O  BGC B   5      51.818  46.473  21.5190  0.00  0.00     0.000 O
ATOM     67  HD  BGC B   5      52.165  46.649  22.2930  0.00  0.00     0.000 HD
ATOM     67   O  BGC B   5      51.818  46.473  21.5190  0.00  0.00     0.000 O
ATOM     69  HD  BGC B   5      52.165  46.649  22.2930  0.00  0.00     0.000 HD
ENDBRANCH 58 62
ENDBRANCH 45 58
ENDBRANCH 44 48
ENDBRANCH 31 44
ENDBRANCH 30 34
ENDBRANCH 17 30
ENDBRANCH 16 20
ENDBRANCH 1 16
TORSDOF 8
ENDMDL
MODEL 51
REMARK VINA RESULT:      -0.1     56.666     59.611
ROOT
ATOM      1  C1  BGC B   1      19.311  22.474  54.8250  0.00  0.00     0.000 C
ATOM      2  C2  BGC B   1      18.108  21.553  55.0170  0.00  0.00     0.000 C
ATOM      3  C3  BGC B   1      18.541  20.103  54.9190  0.00  0.00     0.000 C
ATOM      4  C4  BGC B   1      19.329  19.861  53.6380  0.00  0.00     0.000 C
ATOM      5  C5  BGC B   1      20.496  20.837  53.5980  0.00  0.00     0.000 C
ATOM      6  O5  BGC B   1      19.945  22.166  53.5910  0.00  0.00     0.000 O
ATOM      7   O  BGC B   1      17.534  21.788  56.3130  0.00  0.00     0.000 O
ATOM      9  HD  BGC B   1      17.113  21.133  56.6920  0.00  0.00     0.000 HD
ATOM      9   O  BGC B   1      17.380  19.269  54.9680  0.00  0.00     0.000 O
ATOM     11  HD  BGC B   1      16.960  18.613  55.3480  0.00  0.00     0.000 HD
ATOM     11   O  BGC B   1      19.810  18.535  53.6200  0.00  0.00     0.000 O
ATOM     13  HD  BGC B   1      19.390  17.879  54.0000  0.00  0.00     0.000 HD
ATOM     13   C  BGC B   1      21.413  20.687  52.3920  0.00  0.00     0.000 C
ATOM     14   O  BGC B   1      20.707  20.776  51.1590  0.00  0.00     0.000 O
ATOM     16  HD  BGC B   1      20.286  20.121  51.5380  0.00  0.00     0.000 HD
ENDROOT
BRANCH 1 16
ATOM     16  O4  BGC B   2      18.783  23.788  54.6540  0.00  0.00     0.000 O
BRANCH 16 20
ATOM     17  C1  BGC B   2      19.626  27.687  55.4470  0.00  0.00     0.000 C
ATOM     18  C2  BGC B   2      20.440  27.106  54.3000  0.00  0.00     0.000 C
ATOM     19  C3  BGC B   2      19.795  25.793  53.8630  0.00  0.00     0.000 C
ATOM     20  C4  BGC B   2      19.634  24.862  55.0470  0.00  0.00     0.000 C
ATOM     21  C5  BGC B   2      18.978  25.551  56.2450  0.00  0.00     0.000 C
ATOM     22  O5  BGC B   2      19.707  26.750  56.5370  0.00  0.00     0.000 O
ATOM     23   O  BGC B   2      20.449  28.018  53.1890  0.00  0.00     0.000 O
ATOM     25  HD  BGC B   2      20.019  27.286  53.3560  0.00  0.00     0.000 HD
ATOM     25   O  BGC B   2      20.587  25.176  52.8550  0.00  0.00     0.000 O
ATOM     27  HD  BGC B   2      20.156  24.444  53.0220  0.00  0.00     0.000 HD
ATOM     27   C  BGC B   2      18.982  24.688  57.5010  0.00  0.00     0.000 C
ATOM     28   O  BGC B   2      20.278  24.259  57.8850  0.00  0.00     0.000 O
ATOM     30  HD  BGC B   2      19.847  23.527  58.0520  0.00  0.00     0.000 HD
BRANCH 17 30
ATOM     30  O4  BGC B   3      20.315  28.838  55.8970  0.00  0.00     0.000 O
BRANCH 30 34
ATOM     31  C1  BGC B   3      19.538  32.525  57.5490  0.00  0.00     0.000 C
ATOM     32  C2  BGC B   3      19.338  31.347  58.5020  0.00  0.00     0.000 C
ATOM     33  C3  BGC B   3      20.024  30.123  57.9220  0.00  0.00     0.000 C
ATOM     34  C4  BGC B   3      19.507  29.847  56.5100  0.00  0.00     0.000 C
ATOM     35  C5  BGC B   3      19.603  31.100  55.6580  0.00  0.00     0.000 C
ATOM     36  O5  BGC B   3      18.927  32.177  56.3160  0.00  0.00     0.000 O
ATOM     37   O  BGC B   3      19.938  31.647  59.7600  0.00  0.00     0.000 O
ATOM     39  HD  BGC B   3      19.566  30.937  60.0880  0.00  0.00     0.000 HD
ATOM     39   O  BGC B   3      19.768  29.017  58.7740  0.00  0.00     0.000 O
ATOM     41  HD  BGC B   3      19.396  28.307  59.1020  0.00  0.00     0.000 HD
ATOM     41   C  BGC B   3      19.022  30.942  54.2570  0.00  0.00     0.000 C
ATOM     42   O  BGC B   3      17.671  30.554  54.3320  0.00  0.00     0.000 O
ATOM     44  HD  BGC B   3      17.299  29.844  54.6600  0.00  0.00     0.000 HD
BRANCH 31 44
ATOM     44  O4  BGC B   4      18.806  33.607  58.0660  0.00  0.00     0.000 O
BRANCH 44 48
ATOM     45  C1  BGC B   4      18.894  37.701  58.2460  0.00  0.00     0.000 C
ATOM     46  C2  BGC B   4      18.483  37.131  56.8960  0.00  0.00     0.000 C
ATOM     47  C3  BGC B   4      18.109  35.678  57.0560  0.00  0.00     0.000 C
ATOM     48  C4  BGC B   4      19.247  34.907  57.7330  0.00  0.00     0.000 C
ATOM     49  C5  BGC B   4      19.671  35.602  59.0330  0.00  0.00     0.000 C
ATOM     50  O5  BGC B   4      20.008  36.971  58.7630  0.00  0.00     0.000 O
ATOM     51   O  BGC B   4      17.350  37.854  56.3790  0.00  0.00     0.000 O
ATOM     53  HD  BGC B   4      16.942  37.144  56.6630  0.00  0.00     0.000 HD
ATOM     53   O  BGC B   4      17.851  35.121  55.7590  0.00  0.00     0.000 O
ATOM     55  HD  BGC B   4      17.444  34.412  56.0430  0.00  0.00     0.000 HD
ATOM     55   C  BGC B   4      20.873  34.975  59.7160  0.00  0.00     0.000 C
ATOM     56   O  BGC B   4      21.940  34.933  58.7680  0.00  0.00     0.000 O
ATOM     58  HD  BGC B   4      21.533  34.224  59.0520  0.00  0.00     0.000 HD
BRANCH 45 58
ATOM     58  O4  BGC B   5      19.472  38.977  57.9720  0.00  0.00     0.000 O
BRANCH 58 62
ATOM     59  C1  BGC B   5      19.319  42.931  59.1940  0.00  0.00     0.000 C
ATOM     60  C2  BGC B   5      20.118  42.005  60.0880  0.00  0.00     0.000 C
ATOM     61  C3  BGC B   5      20.456  40.720  59.3570  0.00  0.00     0.000 C
ATOM     62  C4  BGC B   5      19.180  40.086  58.8260  0.00  0.00     0.000 C
ATOM     63  C5  BGC B   5      18.378  41.099  57.9960  0.00  0.00     0.000 C
ATOM     64  O5  BGC B   5      18.125  42.250  58.7940  0.00  0.00     0.000 O
ATOM     65   O  BGC B   5      16.345  40.173  58.7040  0.00  0.00     0.000 O
ATOM     67  HD  BGC B   5      16.011  39.444  59.0320  0.00  0.00     0.000 HD
ATOM     67   O  BGC B   5      16.345  40.173  58.7040  0.00  0.00     0.000 O
ATOM     69  HD  BGC B   5      16.011  39.444  59.0320  0.00  0.00     0.000 HD
ENDBRANCH 58 62
ENDBRANCH 45 58
ENDBRANCH 44 48
ENDBRANCH 31 44
ENDBRANCH 30 34
ENDBRANCH 17 30
ENDBRANCH 16 20
ENDBRANCH 1 16
TORSDOF 8
ENDMDL
MODEL 52
REMARK VINA RESULT:      -0.1     47.452     50.749
ROOT
ATOM      1  C1  BGC B   1      57.136  17.197  17.0850  0.00  0.00     0.000 C
ATOM      2  C2  BGC B   1      57.899  17.882  15.9530  0.00  0.00     0.000 C
ATOM      3  C3  BGC B   1      58.029  16.942  14.7700  0.00  0.00     0.000 C
ATOM      4  C4  BGC B   1      58.608  15.602  15.2060  0.00  0.00     0.000 C
ATOM      5  C5  BGC B   1      57.736  15.041  16.3200  0.00  0.00     0.000 C
ATOM      6  O5  BGC B   1      57.782  15.975  17.4150  0.00  0.00     0.000 O
ATOM      7   O  BGC B   1      57.184  19.060  15.5450  0.00  0.00     0.000 O
ATOM      9  HD  BGC B   1      57.280  19.326  14.7270  0.00  0.00     0.000 HD
ATOM      9   O  BGC B   1      58.859  17.557  13.7800  0.00  0.00     0.000 O
ATOM     11  HD  BGC B   1      58.956  17.824  12.9610  0.00  0.00     0.000 HD
ATOM     11   O  BGC B   1      58.620  14.712  14.1110  0.00  0.00     0.000 O
ATOM     13  HD  BGC B   1      58.716  14.978  13.2930  0.00  0.00     0.000 HD
ATOM     13   C  BGC B   1      58.159  13.672  16.8340  0.00  0.00     0.000 C
ATOM     14   O  BGC B   1      59.516  13.651  17.2670  0.00  0.00     0.000 O
ATOM     16  HD  BGC B   1      59.612  13.917  16.4480  0.00  0.00     0.000 HD
ENDROOT
BRANCH 1 16
ATOM     16  O4  BGC B   2      57.299  18.026  18.2340  0.00  0.00     0.000 O
BRANCH 16 20
ATOM     17  C1  BGC B   2      55.343  19.248  21.5830  0.00  0.00     0.000 C
ATOM     18  C2  BGC B   2      55.874  17.825  21.6710  0.00  0.00     0.000 C
ATOM     19  C3  BGC B   2      56.879  17.612  20.5410  0.00  0.00     0.000 C
ATOM     20  C4  BGC B   2      56.258  17.965  19.2050  0.00  0.00     0.000 C
ATOM     21  C5  BGC B   2      55.569  19.330  19.2250  0.00  0.00     0.000 C
ATOM     22  O5  BGC B   2      54.652  19.362  20.3250  0.00  0.00     0.000 O
ATOM     23   O  BGC B   2      56.533  17.620  22.9310  0.00  0.00     0.000 O
ATOM     25  HD  BGC B   2      56.817  17.759  22.1250  0.00  0.00     0.000 HD
ATOM     25   O  BGC B   2      57.324  16.261  20.5360  0.00  0.00     0.000 O
ATOM     27  HD  BGC B   2      57.608  16.399  19.7300  0.00  0.00     0.000 HD
ATOM     27   C  BGC B   2      54.780  19.616  17.9540  0.00  0.00     0.000 C
ATOM     28   O  BGC B   2      53.805  18.627  17.6630  0.00  0.00     0.000 O
ATOM     30  HD  BGC B   2      54.090  18.766  16.8570  0.00  0.00     0.000 HD
BRANCH 17 30
ATOM     30  O4  BGC B   3      54.336  19.371  22.5700  0.00  0.00     0.000 O
BRANCH 30 34
ATOM     31  C1  BGC B   3      52.715  22.198  25.0810  0.00  0.00     0.000 C
ATOM     32  C2  BGC B   3      52.380  22.395  23.6030  0.00  0.00     0.000 C
ATOM     33  C3  BGC B   3      52.682  21.108  22.8550  0.00  0.00     0.000 C
ATOM     34  C4  BGC B   3      54.132  20.688  23.0910  0.00  0.00     0.000 C
ATOM     35  C5  BGC B   3      54.437  20.652  24.5780  0.00  0.00     0.000 C
ATOM     36  O5  BGC B   3      54.103  21.914  25.1640  0.00  0.00     0.000 O
ATOM     37   O  BGC B   3      50.990  22.681  23.4640  0.00  0.00     0.000 O
ATOM     39  HD  BGC B   3      51.128  22.869  22.6300  0.00  0.00     0.000 HD
ATOM     39   O  BGC B   3      52.441  21.324  21.4720  0.00  0.00     0.000 O
ATOM     41  HD  BGC B   3      52.580  21.512  20.6380  0.00  0.00     0.000 HD
ATOM     41   C  BGC B   3      55.891  20.330  24.9050  0.00  0.00     0.000 C
ATOM     42   O  BGC B   3      56.745  21.270  24.2960  0.00  0.00     0.000 O
ATOM     44  HD  BGC B   3      56.883  21.457  23.4620  0.00  0.00     0.000 HD
BRANCH 31 44
ATOM     44  O4  BGC B   4      52.521  23.434  25.7190  0.00  0.00     0.000 O
BRANCH 44 48
ATOM     45  C1  BGC B   4      51.403  24.995  29.3410  0.00  0.00     0.000 C
ATOM     46  C2  BGC B   4      52.814  24.424  29.3000  0.00  0.00     0.000 C
ATOM     47  C3  BGC B   4      53.245  24.250  27.8650  0.00  0.00     0.000 C
ATOM     48  C4  BGC B   4      52.216  23.412  27.0980  0.00  0.00     0.000 C
ATOM     49  C5  BGC B   4      50.809  23.996  27.2730  0.00  0.00     0.000 C
ATOM     50  O5  BGC B   4      50.502  24.112  28.6700  0.00  0.00     0.000 O
ATOM     51   O  BGC B   4      53.728  25.320  29.9600  0.00  0.00     0.000 O
ATOM     53  HD  BGC B   4      53.917  25.513  29.1370  0.00  0.00     0.000 HD
ATOM     53   O  BGC B   4      54.519  23.591  27.8410  0.00  0.00     0.000 O
ATOM     55  HD  BGC B   4      54.708  23.784  27.0190  0.00  0.00     0.000 HD
ATOM     55   C  BGC B   4      49.703  23.166  26.6440  0.00  0.00     0.000 C
ATOM     56   O  BGC B   4      49.796  21.843  27.1750  0.00  0.00     0.000 O
ATOM     58  HD  BGC B   4      49.985  22.036  26.3520  0.00  0.00     0.000 HD
BRANCH 45 58
ATOM     58  O4  BGC B   5      50.977  24.888  30.6980  0.00  0.00     0.000 O
BRANCH 58 62
ATOM     59  C1  BGC B   5      49.235  27.104  33.7320  0.00  0.00     0.000 C
ATOM     60  C2  BGC B   5      48.280  26.583  32.6770  0.00  0.00     0.000 C
ATOM     61  C3  BGC B   5      48.928  25.470  31.8750  0.00  0.00     0.000 C
ATOM     62  C4  BGC B   5      50.247  25.960  31.3000  0.00  0.00     0.000 C
ATOM     63  C5  BGC B   5      51.135  26.547  32.4080  0.00  0.00     0.000 C
ATOM     64  O5  BGC B   5      50.415  27.577  33.0760  0.00  0.00     0.000 O
ATOM     65   O  BGC B   5      52.031  28.140  30.9390  0.00  0.00     0.000 O
ATOM     67  HD  BGC B   5      52.147  28.291  30.0940  0.00  0.00     0.000 HD
ATOM     67   O  BGC B   5      52.031  28.140  30.9390  0.00  0.00     0.000 O
ATOM     69  HD  BGC B   5      52.147  28.291  30.0940  0.00  0.00     0.000 HD
ENDBRANCH 58 62
ENDBRANCH 45 58
ENDBRANCH 44 48
ENDBRANCH 31 44
ENDBRANCH 30 34
ENDBRANCH 17 30
ENDBRANCH 16 20
ENDBRANCH 1 16
TORSDOF 8
ENDMDL
MODEL 53
REMARK VINA RESULT:      -0.1     70.182     77.499
ROOT
ATOM      1  C1  BGC B   1      52.236  53.734  56.4300  0.00  0.00     0.000 C
ATOM      2  C2  BGC B   1      53.520  53.007  56.0360  0.00  0.00     0.000 C
ATOM      3  C3  BGC B   1      54.554  53.142  57.1380  0.00  0.00     0.000 C
ATOM      4  C4  BGC B   1      54.744  54.603  57.5240  0.00  0.00     0.000 C
ATOM      5  C5  BGC B   1      53.388  55.181  57.9030  0.00  0.00     0.000 C
ATOM      6  O5  BGC B   1      52.540  55.086  56.7440  0.00  0.00     0.000 O
ATOM      7   O  BGC B   1      53.231  51.615  55.8260  0.00  0.00     0.000 O
ATOM      9  HD  BGC B   1      53.870  51.047  55.9590  0.00  0.00     0.000 HD
ATOM      9   O  BGC B   1      55.786  52.569  56.6890  0.00  0.00     0.000 O
ATOM     11  HD  BGC B   1      56.425  52.000  56.8220  0.00  0.00     0.000 HD
ATOM     11   O  BGC B   1      55.628  54.693  58.6190  0.00  0.00     0.000 O
ATOM     13  HD  BGC B   1      56.268  54.124  58.7520  0.00  0.00     0.000 HD
ATOM     13   C  BGC B   1      53.418  56.632  58.3630  0.00  0.00     0.000 C
ATOM     14   O  BGC B   1      54.025  57.492  57.4040  0.00  0.00     0.000 O
ATOM     16  HD  BGC B   1      54.664  56.923  57.5370  0.00  0.00     0.000 HD
ENDROOT
BRANCH 1 16
ATOM     16  O4  BGC B   2      51.436  53.797  55.2510  0.00  0.00     0.000 O
BRANCH 16 20
ATOM     17  C1  BGC B   2      47.559  53.737  54.0240  0.00  0.00     0.000 C
ATOM     18  C2  BGC B   2      47.981  55.057  54.6530  0.00  0.00     0.000 C
ATOM     19  C3  BGC B   2      49.506  55.091  54.7320  0.00  0.00     0.000 C
ATOM     20  C4  BGC B   2      50.027  53.863  55.4510  0.00  0.00     0.000 C
ATOM     21  C5  BGC B   2      49.425  52.568  54.9030  0.00  0.00     0.000 C
ATOM     22  O5  BGC B   2      47.997  52.690  54.9110  0.00  0.00     0.000 O
ATOM     23   O  BGC B   2      47.527  56.156  53.8450  0.00  0.00     0.000 O
ATOM     25  HD  BGC B   2      48.296  55.771  53.9520  0.00  0.00     0.000 HD
ATOM     25   O  BGC B   2      49.930  56.272  55.4020  0.00  0.00     0.000 O
ATOM     27  HD  BGC B   2      50.698  55.887  55.5090  0.00  0.00     0.000 HD
ATOM     27   C  BGC B   2      49.791  51.345  55.7350  0.00  0.00     0.000 C
ATOM     28   O  BGC B   2      49.428  51.466  57.1010  0.00  0.00     0.000 O
ATOM     30  HD  BGC B   2      50.197  51.081  57.2080  0.00  0.00     0.000 HD
BRANCH 17 30
ATOM     30  O4  BGC B   3      46.146  53.694  54.0720  0.00  0.00     0.000 O
BRANCH 30 34
ATOM     31  C1  BGC B   3      42.969  52.188  51.9350  0.00  0.00     0.000 C
ATOM     32  C2  BGC B   3      43.787  51.135  52.6830  0.00  0.00     0.000 C
ATOM     33  C3  BGC B   3      44.649  51.830  53.7220  0.00  0.00     0.000 C
ATOM     34  C4  BGC B   3      45.513  52.904  53.0610  0.00  0.00     0.000 C
ATOM     35  C5  BGC B   3      44.652  53.829  52.2190  0.00  0.00     0.000 C
ATOM     36  O5  BGC B   3      43.888  53.055  51.2890  0.00  0.00     0.000 O
ATOM     37   O  BGC B   3      42.907  50.237  53.3540  0.00  0.00     0.000 O
ATOM     39  HD  BGC B   3      43.587  49.732  53.5350  0.00  0.00     0.000 HD
ATOM     39   O  BGC B   3      45.462  50.855  54.3580  0.00  0.00     0.000 O
ATOM     41  HD  BGC B   3      46.142  50.350  54.5390  0.00  0.00     0.000 HD
ATOM     41   C  BGC B   3      45.444  54.879  51.4470  0.00  0.00     0.000 C
ATOM     42   O  BGC B   3      46.386  54.255  50.6060  0.00  0.00     0.000 O
ATOM     44  HD  BGC B   3      47.066  53.751  50.7870  0.00  0.00     0.000 HD
BRANCH 31 44
ATOM     44  O4  BGC B   4      42.266  51.522  50.9180  0.00  0.00     0.000 O
BRANCH 44 48
ATOM     45  C1  BGC B   4      38.744  51.734  48.8310  0.00  0.00     0.000 C
ATOM     46  C2  BGC B   4      39.784  52.771  48.4330  0.00  0.00     0.000 C
ATOM     47  C3  BGC B   4      41.135  52.358  48.9650  0.00  0.00     0.000 C
ATOM     48  C4  BGC B   4      41.058  52.106  50.4740  0.00  0.00     0.000 C
ATOM     49  C5  BGC B   4      39.921  51.130  50.8000  0.00  0.00     0.000 C
ATOM     50  O5  BGC B   4      38.689  51.621  50.2540  0.00  0.00     0.000 O
ATOM     51   O  BGC B   4      39.855  52.875  46.9990  0.00  0.00     0.000 O
ATOM     53  HD  BGC B   4      40.565  52.398  47.1370  0.00  0.00     0.000 HD
ATOM     53   O  BGC B   4      42.077  53.407  48.6970  0.00  0.00     0.000 O
ATOM     55  HD  BGC B   4      42.787  52.931  48.8350  0.00  0.00     0.000 HD
ATOM     55   C  BGC B   4      39.692  50.907  52.2840  0.00  0.00     0.000 C
ATOM     56   O  BGC B   4      39.481  52.184  52.8890  0.00  0.00     0.000 O
ATOM     58  HD  BGC B   4      40.191  51.708  53.0270  0.00  0.00     0.000 HD
BRANCH 45 58
ATOM     58  O4  BGC B   5      37.476  52.313  48.5240  0.00  0.00     0.000 O
BRANCH 58 62
ATOM     59  C1  BGC B   5      33.906  51.463  46.6060  0.00  0.00     0.000 C
ATOM     60  C2  BGC B   5      34.055  50.873  47.9940  0.00  0.00     0.000 C
ATOM     61  C3  BGC B   5      35.171  51.567  48.7510  0.00  0.00     0.000 C
ATOM     62  C4  BGC B   5      36.452  51.510  47.9340  0.00  0.00     0.000 C
ATOM     63  C5  BGC B   5      36.214  52.048  46.5160  0.00  0.00     0.000 C
ATOM     64  O5  BGC B   5      35.151  51.313  45.9170  0.00  0.00     0.000 O
ATOM     65   O  BGC B   5      37.758  50.535  45.6090  0.00  0.00     0.000 O
ATOM     67  HD  BGC B   5      38.435  50.044  45.8320  0.00  0.00     0.000 HD
ATOM     67   O  BGC B   5      37.758  50.535  45.6090  0.00  0.00     0.000 O
ATOM     69  HD  BGC B   5      38.435  50.044  45.8320  0.00  0.00     0.000 HD
ENDBRANCH 58 62
ENDBRANCH 45 58
ENDBRANCH 44 48
ENDBRANCH 31 44
ENDBRANCH 30 34
ENDBRANCH 17 30
ENDBRANCH 16 20
ENDBRANCH 1 16
TORSDOF 8
ENDMDL
MODEL 54
REMARK VINA RESULT:      -0.1     52.912     58.732
ROOT
ATOM      1  C1  BGC B   1      27.101  59.119  25.8650  0.00  0.00     0.000 C
ATOM      2  C2  BGC B   1      26.729  60.065  24.7240  0.00  0.00     0.000 C
ATOM      3  C3  BGC B   1      27.982  60.569  24.0360  0.00  0.00     0.000 C
ATOM      4  C4  BGC B   1      28.959  61.150  25.0510  0.00  0.00     0.000 C
ATOM      5  C5  BGC B   1      29.242  60.092  26.1070  0.00  0.00     0.000 C
ATOM      6  O5  BGC B   1      27.993  59.781  26.7510  0.00  0.00     0.000 O
ATOM      7   O  BGC B   1      25.916  59.361  23.7710  0.00  0.00     0.000 O
ATOM      9  HD  BGC B   1      25.939  59.627  22.9480  0.00  0.00     0.000 HD
ATOM      9   O  BGC B   1      27.613  61.552  23.0640  0.00  0.00     0.000 O
ATOM     11  HD  BGC B   1      27.636  61.818  22.2400  0.00  0.00     0.000 HD
ATOM     11   O  BGC B   1      30.157  61.514  24.4010  0.00  0.00     0.000 O
ATOM     13  HD  BGC B   1      30.180  61.780  23.5770  0.00  0.00     0.000 HD
ATOM     13   C  BGC B   1      30.246  60.507  27.1730  0.00  0.00     0.000 C
ATOM     14   O  BGC B   1      29.871  61.713  27.8300  0.00  0.00     0.000 O
ATOM     16  HD  BGC B   1      29.895  61.980  27.0070  0.00  0.00     0.000 HD
ENDROOT
BRANCH 1 16
ATOM     16  O4  BGC B   2      25.908  58.918  26.6200  0.00  0.00     0.000 O
BRANCH 16 20
ATOM     17  C1  BGC B   2      23.970  56.101  28.8220  0.00  0.00     0.000 C
ATOM     18  C2  BGC B   2      25.154  56.730  29.5400  0.00  0.00     0.000 C
ATOM     19  C3  BGC B   2      25.562  57.995  28.7880  0.00  0.00     0.000 C
ATOM     20  C4  BGC B   2      25.813  57.683  27.3260  0.00  0.00     0.000 C
ATOM     21  C5  BGC B   2      24.673  56.882  26.6970  0.00  0.00     0.000 C
ATOM     22  O5  BGC B   2      24.425  55.727  27.5080  0.00  0.00     0.000 O
ATOM     23   O  BGC B   2      24.786  57.081  30.8850  0.00  0.00     0.000 O
ATOM     25  HD  BGC B   2      24.888  57.537  30.1550  0.00  0.00     0.000 HD
ATOM     25   O  BGC B   2      26.727  58.556  29.3800  0.00  0.00     0.000 O
ATOM     27  HD  BGC B   2      26.829  59.012  28.6500  0.00  0.00     0.000 HD
ATOM     27   C  BGC B   2      24.994  56.399  25.2880  0.00  0.00     0.000 C
ATOM     28   O  BGC B   2      26.180  55.624  25.2150  0.00  0.00     0.000 O
ATOM     30  HD  BGC B   2      26.281  56.080  24.4860  0.00  0.00     0.000 HD
BRANCH 17 30
ATOM     30  O4  BGC B   3      23.694  54.878  29.4790  0.00  0.00     0.000 O
BRANCH 30 34
ATOM     31  C1  BGC B   3      20.514  52.417  30.3470  0.00  0.00     0.000 C
ATOM     32  C2  BGC B   3      20.930  52.422  28.8760  0.00  0.00     0.000 C
ATOM     33  C3  BGC B   3      22.317  53.028  28.7600  0.00  0.00     0.000 C
ATOM     34  C4  BGC B   3      22.342  54.418  29.3960  0.00  0.00     0.000 C
ATOM     35  C5  BGC B   3      21.782  54.363  30.8060  0.00  0.00     0.000 C
ATOM     36  O5  BGC B   3      20.481  53.768  30.7800  0.00  0.00     0.000 O
ATOM     37   O  BGC B   3      20.980  51.082  28.3910  0.00  0.00     0.000 O
ATOM     39  HD  BGC B   3      21.083  51.394  27.5890  0.00  0.00     0.000 HD
ATOM     39   O  BGC B   3      22.663  53.100  27.3850  0.00  0.00     0.000 O
ATOM     41  HD  BGC B   3      22.765  53.412  26.5830  0.00  0.00     0.000 HD
ATOM     41   C  BGC B   3      21.684  55.724  31.4870  0.00  0.00     0.000 C
ATOM     42   O  BGC B   3      20.883  56.593  30.7210  0.00  0.00     0.000 O
ATOM     44  HD  BGC B   3      20.985  56.904  29.9190  0.00  0.00     0.000 HD
BRANCH 31 44
ATOM     44  O4  BGC B   4      19.192  51.947  30.4030  0.00  0.00     0.000 O
BRANCH 44 48
ATOM     45  C1  BGC B   4      16.673  49.830  32.8480  0.00  0.00     0.000 C
ATOM     46  C2  BGC B   4      16.977  51.245  33.3180  0.00  0.00     0.000 C
ATOM     47  C3  BGC B   4      17.568  52.038  32.1780  0.00  0.00     0.000 C
ATOM     48  C4  BGC B   4      18.780  51.306  31.5930  0.00  0.00     0.000 C
ATOM     49  C5  BGC B   4      18.417  49.858  31.2400  0.00  0.00     0.000 C
ATOM     50  O5  BGC B   4      17.872  49.200  32.3940  0.00  0.00     0.000 O
ATOM     51   O  BGC B   4      15.767  51.889  33.7610  0.00  0.00     0.000 O
ATOM     53  HD  BGC B   4      15.846  52.263  32.9840  0.00  0.00     0.000 HD
ATOM     53   O  BGC B   4      17.969  53.325  32.6680  0.00  0.00     0.000 O
ATOM     55  HD  BGC B   4      18.048  53.699  31.8920  0.00  0.00     0.000 HD
ATOM     55   C  BGC B   4      19.587  49.017  30.7610  0.00  0.00     0.000 C
ATOM     56   O  BGC B   4      20.606  49.078  31.7610  0.00  0.00     0.000 O
ATOM     58  HD  BGC B   4      20.684  49.452  30.9840  0.00  0.00     0.000 HD
BRANCH 45 58
ATOM     58  O4  BGC B   5      16.369  49.083  34.0260  0.00  0.00     0.000 O
BRANCH 58 62
ATOM     59  C1  BGC B   5      13.568  46.448  35.5620  0.00  0.00     0.000 C
ATOM     60  C2  BGC B   5      14.571  45.843  34.6010  0.00  0.00     0.000 C
ATOM     61  C3  BGC B   5      15.767  46.761  34.4320  0.00  0.00     0.000 C
ATOM     62  C4  BGC B   5      15.293  48.143  34.0120  0.00  0.00     0.000 C
ATOM     63  C5  BGC B   5      14.221  48.664  34.9810  0.00  0.00     0.000 C
ATOM     64  O5  BGC B   5      13.159  47.719  35.0450  0.00  0.00     0.000 O
ATOM     65   O  BGC B   5      13.105  49.786  33.2500  0.00  0.00     0.000 O
ATOM     67  HD  BGC B   5      13.236  50.105  32.4560  0.00  0.00     0.000 HD
ATOM     67   O  BGC B   5      13.105  49.786  33.2500  0.00  0.00     0.000 O
ATOM     69  HD  BGC B   5      13.236  50.105  32.4560  0.00  0.00     0.000 HD
ENDBRANCH 58 62
ENDBRANCH 45 58
ENDBRANCH 44 48
ENDBRANCH 31 44
ENDBRANCH 30 34
ENDBRANCH 17 30
ENDBRANCH 16 20
ENDBRANCH 1 16
TORSDOF 8
ENDMDL
MODEL 55
REMARK VINA RESULT:      -0.1     77.497     81.122
ROOT
ATOM      1  C1  BGC B   1      68.114  52.956  31.4510  0.00  0.00     0.000 C
ATOM      2  C2  BGC B   1      69.205  53.883  30.9180  0.00  0.00     0.000 C
ATOM      3  C3  BGC B   1      69.338  53.721  29.4160  0.00  0.00     0.000 C
ATOM      4  C4  BGC B   1      69.514  52.253  29.0450  0.00  0.00     0.000 C
ATOM      5  C5  BGC B   1      68.350  51.466  29.6290  0.00  0.00     0.000 C
ATOM      6  O5  BGC B   1      68.401  51.620  31.0600  0.00  0.00     0.000 O
ATOM      7   O  BGC B   1      68.857  55.245  31.2180  0.00  0.00     0.000 O
ATOM      9  HD  BGC B   1      69.159  55.862  30.6910  0.00  0.00     0.000 HD
ATOM      9   O  BGC B   1      70.452  54.497  28.9640  0.00  0.00     0.000 O
ATOM     11  HD  BGC B   1      70.753  55.115  28.4370  0.00  0.00     0.000 HD
ATOM     11   O  BGC B   1      69.530  52.118  27.6410  0.00  0.00     0.000 O
ATOM     13  HD  BGC B   1      69.831  52.736  27.1140  0.00  0.00     0.000 HD
ATOM     13   C  BGC B   1      68.356  49.980  29.3020  0.00  0.00     0.000 C
ATOM     14   O  BGC B   1      69.572  49.345  29.6880  0.00  0.00     0.000 O
ATOM     16  HD  BGC B   1      69.873  49.963  29.1620  0.00  0.00     0.000 HD
ENDROOT
BRANCH 1 16
ATOM     16  O4  BGC B   2      68.243  52.964  32.8710  0.00  0.00     0.000 O
BRANCH 16 20
ATOM     17  C1  BGC B   2      66.028  52.725  36.2730  0.00  0.00     0.000 C
ATOM     18  C2  BGC B   2      66.202  51.391  35.5620  0.00  0.00     0.000 C
ATOM     19  C3  BGC B   2      67.325  51.531  34.5360  0.00  0.00     0.000 C
ATOM     20  C4  BGC B   2      67.054  52.700  33.6110  0.00  0.00     0.000 C
ATOM     21  C5  BGC B   2      66.696  53.976  34.3740  0.00  0.00     0.000 C
ATOM     22  O5  BGC B   2      65.623  53.682  35.2760  0.00  0.00     0.000 O
ATOM     23   O  BGC B   2      66.555  50.369  36.5090  0.00  0.00     0.000 O
ATOM     25  HD  BGC B   2      67.006  50.825  35.9270  0.00  0.00     0.000 HD
ATOM     25   O  BGC B   2      67.449  50.328  33.7870  0.00  0.00     0.000 O
ATOM     27  HD  BGC B   2      67.901  50.784  33.2050  0.00  0.00     0.000 HD
ATOM     27   C  BGC B   2      66.238  55.106  33.4600  0.00  0.00     0.000 C
ATOM     28   O  BGC B   2      65.138  54.752  32.6370  0.00  0.00     0.000 O
ATOM     30  HD  BGC B   2      65.590  55.209  32.0560  0.00  0.00     0.000 HD
BRANCH 17 30
ATOM     30  O4  BGC B   3      64.910  52.588  37.1300  0.00  0.00     0.000 O
BRANCH 30 34
ATOM     31  C1  BGC B   3      63.516  54.001  40.7330  0.00  0.00     0.000 C
ATOM     32  C2  BGC B   3      63.495  55.025  39.5990  0.00  0.00     0.000 C
ATOM     33  C3  BGC B   3      63.642  54.296  38.2760  0.00  0.00     0.000 C
ATOM     34  C4  BGC B   3      64.904  53.435  38.2840  0.00  0.00     0.000 C
ATOM     35  C5  BGC B   3      64.928  52.543  39.5130  0.00  0.00     0.000 C
ATOM     36  O5  BGC B   3      64.774  53.347  40.6870  0.00  0.00     0.000 O
ATOM     37   O  BGC B   3      62.244  55.711  39.6010  0.00  0.00     0.000 O
ATOM     39  HD  BGC B   3      62.564  56.261  39.0130  0.00  0.00     0.000 HD
ATOM     39   O  BGC B   3      63.699  55.260  37.2350  0.00  0.00     0.000 O
ATOM     41  HD  BGC B   3      64.019  55.809  36.6470  0.00  0.00     0.000 HD
ATOM     41   C  BGC B   3      66.199  51.713  39.6520  0.00  0.00     0.000 C
ATOM     42   O  BGC B   3      67.327  52.555  39.6870  0.00  0.00     0.000 O
ATOM     44  HD  BGC B   3      67.647  53.104  39.0990  0.00  0.00     0.000 HD
BRANCH 31 44
ATOM     44  O4  BGC B   4      63.481  54.717  41.9410  0.00  0.00     0.000 O
BRANCH 44 48
ATOM     45  C1  BGC B   4      62.098  54.395  45.7860  0.00  0.00     0.000 C
ATOM     46  C2  BGC B   4      63.326  53.551  45.4770  0.00  0.00     0.000 C
ATOM     47  C3  BGC B   4      63.963  54.038  44.1990  0.00  0.00     0.000 C
ATOM     48  C4  BGC B   4      62.931  54.065  43.0680  0.00  0.00     0.000 C
ATOM     49  C5  BGC B   4      61.683  54.848  43.4950  0.00  0.00     0.000 C
ATOM     50  O5  BGC B   4      61.160  54.298  44.7130  0.00  0.00     0.000 O
ATOM     51   O  BGC B   4      64.281  53.659  46.5500  0.00  0.00     0.000 O
ATOM     53  HD  BGC B   4      64.657  54.190  45.9780  0.00  0.00     0.000 HD
ATOM     53   O  BGC B   4      65.039  53.154  43.8530  0.00  0.00     0.000 O
ATOM     55  HD  BGC B   4      65.414  53.685  43.2810  0.00  0.00     0.000 HD
ATOM     55   C  BGC B   4      60.555  54.832  42.4790  0.00  0.00     0.000 C
ATOM     56   O  BGC B   4      60.249  53.467  42.1900  0.00  0.00     0.000 O
ATOM     58  HD  BGC B   4      60.624  53.998  41.6180  0.00  0.00     0.000 HD
BRANCH 45 58
ATOM     58  O4  BGC B   5      61.416  53.721  46.8440  0.00  0.00     0.000 O
BRANCH 58 62
ATOM     59  C1  BGC B   5      59.661  54.409  50.5310  0.00  0.00     0.000 C
ATOM     60  C2  BGC B   5      58.842  54.839  49.3300  0.00  0.00     0.000 C
ATOM     61  C3  BGC B   5      59.363  54.182  48.0670  0.00  0.00     0.000 C
ATOM     62  C4  BGC B   5      60.847  54.475  47.9160  0.00  0.00     0.000 C
ATOM     63  C5  BGC B   5      61.607  54.091  49.1940  0.00  0.00     0.000 C
ATOM     64  O5  BGC B   5      61.025  54.775  50.2990  0.00  0.00     0.000 O
ATOM     65   O  BGC B   5      63.119  55.860  48.9090  0.00  0.00     0.000 O
ATOM     67  HD  BGC B   5      63.433  56.390  48.3010  0.00  0.00     0.000 HD
ATOM     67   O  BGC B   5      63.119  55.860  48.9090  0.00  0.00     0.000 O
ATOM     69  HD  BGC B   5      63.433  56.390  48.3010  0.00  0.00     0.000 HD
ENDBRANCH 58 62
ENDBRANCH 45 58
ENDBRANCH 44 48
ENDBRANCH 31 44
ENDBRANCH 30 34
ENDBRANCH 17 30
ENDBRANCH 16 20
ENDBRANCH 1 16
TORSDOF 8
ENDMDL
MODEL 56
REMARK VINA RESULT:      -0.1     54.244     58.561
ROOT
ATOM      1  C1  BGC B   1      17.146  48.034  35.4440  0.00  0.00     0.000 C
ATOM      2  C2  BGC B   1      15.703  48.002  35.9470  0.00  0.00     0.000 C
ATOM      3  C3  BGC B   1      15.475  46.766  36.7950  0.00  0.00     0.000 C
ATOM      4  C4  BGC B   1      15.917  45.512  36.0500  0.00  0.00     0.000 C
ATOM      5  C5  BGC B   1      17.368  45.688  35.6300  0.00  0.00     0.000 C
ATOM      6  O5  BGC B   1      17.427  46.826  34.7510  0.00  0.00     0.000 O
ATOM      7   O  BGC B   1      15.453  49.174  36.7410  0.00  0.00     0.000 O
ATOM      9  HD  BGC B   1      14.850  49.119  37.3600  0.00  0.00     0.000 HD
ATOM      9   O  BGC B   1      14.089  46.692  37.1400  0.00  0.00     0.000 O
ATOM     11  HD  BGC B   1      13.486  46.637  37.7600  0.00  0.00     0.000 HD
ATOM     11   O  BGC B   1      15.793  44.390  36.8970  0.00  0.00     0.000 O
ATOM     13  HD  BGC B   1      15.191  44.335  37.5170  0.00  0.00     0.000 HD
ATOM     13   C  BGC B   1      17.975  44.490  34.9120  0.00  0.00     0.000 C
ATOM     14   O  BGC B   1      17.217  44.102  33.7710  0.00  0.00     0.000 O
ATOM     16  HD  BGC B   1      16.614  44.047  34.3900  0.00  0.00     0.000 HD
ENDROOT
BRANCH 1 16
ATOM     16  O4  BGC B   2      17.197  49.054  34.4480  0.00  0.00     0.000 O
BRANCH 16 20
ATOM     17  C1  BGC B   2      19.683  51.882  32.9110  0.00  0.00     0.000 C
ATOM     18  C2  BGC B   2      20.031  50.464  32.4820  0.00  0.00     0.000 C
ATOM     19  C3  BGC B   2      18.847  49.555  32.8060  0.00  0.00     0.000 C
ATOM     20  C4  BGC B   2      18.460  49.689  34.2650  0.00  0.00     0.000 C
ATOM     21  C5  BGC B   2      18.307  51.148  34.6960  0.00  0.00     0.000 C
ATOM     22  O5  BGC B   2      19.501  51.857  34.3390  0.00  0.00     0.000 O
ATOM     23   O  BGC B   2      20.282  50.423  31.0670  0.00  0.00     0.000 O
ATOM     25  HD  BGC B   2      19.609  50.191  31.5610  0.00  0.00     0.000 HD
ATOM     25   O  BGC B   2      19.177  48.204  32.5050  0.00  0.00     0.000 O
ATOM     27  HD  BGC B   2      18.504  47.973  32.9980  0.00  0.00     0.000 HD
ATOM     27   C  BGC B   2      18.106  51.305  36.1980  0.00  0.00     0.000 C
ATOM     28   O  BGC B   2      19.141  50.717  36.9690  0.00  0.00     0.000 O
ATOM     30  HD  BGC B   2      18.469  50.485  37.4620  0.00  0.00     0.000 HD
BRANCH 17 30
ATOM     30  O4  BGC B   3      20.841  52.668  32.7000  0.00  0.00     0.000 O
BRANCH 30 34
ATOM     31  C1  BGC B   3      21.892  56.521  31.7130  0.00  0.00     0.000 C
ATOM     32  C2  BGC B   3      21.317  56.361  33.1200  0.00  0.00     0.000 C
ATOM     33  C3  BGC B   3      21.349  54.891  33.4990  0.00  0.00     0.000 C
ATOM     34  C4  BGC B   3      20.611  54.059  32.4510  0.00  0.00     0.000 C
ATOM     35  C5  BGC B   3      21.136  54.374  31.0610  0.00  0.00     0.000 C
ATOM     36  O5  BGC B   3      21.059  55.785  30.8320  0.00  0.00     0.000 O
ATOM     37   O  BGC B   3      22.123  57.084  34.0490  0.00  0.00     0.000 O
ATOM     39  HD  BGC B   3      21.523  56.939  34.6560  0.00  0.00     0.000 HD
ATOM     39   O  BGC B   3      20.743  54.742  34.7750  0.00  0.00     0.000 O
ATOM     41  HD  BGC B   3      20.144  54.597  35.3820  0.00  0.00     0.000 HD
ATOM     41   C  BGC B   3      20.392  53.655  29.9410  0.00  0.00     0.000 C
ATOM     42   O  BGC B   3      19.022  53.974  29.9850  0.00  0.00     0.000 O
ATOM     44  HD  BGC B   3      18.422  53.829  30.5930  0.00  0.00     0.000 HD
BRANCH 31 44
ATOM     44  O4  BGC B   4      21.751  57.873  31.3590  0.00  0.00     0.000 O
BRANCH 44 48
ATOM     45  C1  BGC B   4      23.589  60.777  29.1230  0.00  0.00     0.000 C
ATOM     46  C2  BGC B   4      22.830  59.734  28.3150  0.00  0.00     0.000 C
ATOM     47  C3  BGC B   4      21.894  58.976  29.2240  0.00  0.00     0.000 C
ATOM     48  C4  BGC B   4      22.664  58.395  30.4140  0.00  0.00     0.000 C
ATOM     49  C5  BGC B   4      23.482  59.488  31.1130  0.00  0.00     0.000 C
ATOM     50  O5  BGC B   4      24.337  60.137  30.1600  0.00  0.00     0.000 O
ATOM     51   O  BGC B   4      22.061  60.377  27.2800  0.00  0.00     0.000 O
ATOM     53  HD  BGC B   4      21.425  60.220  27.8460  0.00  0.00     0.000 HD
ATOM     53   O  BGC B   4      21.283  57.914  28.4780  0.00  0.00     0.000 O
ATOM     55  HD  BGC B   4      20.647  57.758  29.0430  0.00  0.00     0.000 HD
ATOM     55   C  BGC B   4      24.371  58.986  32.2360  0.00  0.00     0.000 C
ATOM     56   O  BGC B   4      25.209  57.959  31.7020  0.00  0.00     0.000 O
ATOM     58  HD  BGC B   4      24.572  57.802  32.2680  0.00  0.00     0.000 HD
BRANCH 45 58
ATOM     58  O4  BGC B   5      24.620  61.263  28.2640  0.00  0.00     0.000 O
BRANCH 58 62
ATOM     59  C1  BGC B   5      26.330  64.785  26.9160  0.00  0.00     0.000 C
ATOM     60  C2  BGC B   5      26.719  64.370  28.3210  0.00  0.00     0.000 C
ATOM     61  C3  BGC B   5      26.390  62.907  28.5540  0.00  0.00     0.000 C
ATOM     62  C4  BGC B   5      24.924  62.659  28.2400  0.00  0.00     0.000 C
ATOM     63  C5  BGC B   5      24.577  63.174  26.8350  0.00  0.00     0.000 C
ATOM     64  O5  BGC B   5      24.928  64.552  26.7500  0.00  0.00     0.000 O
ATOM     65   O  BGC B   5      22.416  63.778  27.5160  0.00  0.00     0.000 O
ATOM     67  HD  BGC B   5      21.827  63.608  28.1280  0.00  0.00     0.000 HD
ATOM     67   O  BGC B   5      22.416  63.778  27.5160  0.00  0.00     0.000 O
ATOM     69  HD  BGC B   5      21.827  63.608  28.1280  0.00  0.00     0.000 HD
ENDBRANCH 58 62
ENDBRANCH 45 58
ENDBRANCH 44 48
ENDBRANCH 31 44
ENDBRANCH 30 34
ENDBRANCH 17 30
ENDBRANCH 16 20
ENDBRANCH 1 16
TORSDOF 8
ENDMDL
MODEL 57
REMARK VINA RESULT:      -0.1     64.870     68.348
ROOT
ATOM      1  C1  BGC B   1      42.486  65.931   6.3510  0.00  0.00     0.000 C
ATOM      2  C2  BGC B   1      42.482  64.887   5.2350  0.00  0.00     0.000 C
ATOM      3  C3  BGC B   1      43.444  65.296   4.1360  0.00  0.00     0.000 C
ATOM      4  C4  BGC B   1      43.162  66.720   3.6740  0.00  0.00     0.000 C
ATOM      5  C5  BGC B   1      43.215  67.639   4.8860  0.00  0.00     0.000 C
ATOM      6  O5  BGC B   1      42.190  67.207   5.7990  0.00  0.00     0.000 O
ATOM      7   O  BGC B   1      42.890  63.618   5.7730  0.00  0.00     0.000 O
ATOM      9  HD  BGC B   1      43.274  63.058   5.2360  0.00  0.00     0.000 HD
ATOM      9   O  BGC B   1      43.322  64.374   3.0480  0.00  0.00     0.000 O
ATOM     11  HD  BGC B   1      43.706  63.814   2.5110  0.00  0.00     0.000 HD
ATOM     11   O  BGC B   1      44.133  67.113   2.7290  0.00  0.00     0.000 O
ATOM     13  HD  BGC B   1      44.517  66.553   2.1920  0.00  0.00     0.000 HD
ATOM     13   C  BGC B   1      43.000  69.114   4.5800  0.00  0.00     0.000 C
ATOM     14   O  BGC B   1      41.779  69.351   3.8860  0.00  0.00     0.000 O
ATOM     16  HD  BGC B   1      42.163  68.791   3.3480  0.00  0.00     0.000 HD
ENDROOT
BRANCH 1 16
ATOM     16  O4  BGC B   2      41.375  65.621   7.1900  0.00  0.00     0.000 O
BRANCH 16 20
ATOM     17  C1  BGC B   2      40.191  65.737  11.0780  0.00  0.00     0.000 C
ATOM     18  C2  BGC B   2      40.199  67.099  10.4010  0.00  0.00     0.000 C
ATOM     19  C3  BGC B   2      40.296  66.890   8.8910  0.00  0.00     0.000 C
ATOM     20  C4  BGC B   2      41.489  66.019   8.5540  0.00  0.00     0.000 C
ATOM     21  C5  BGC B   2      41.539  64.746   9.3990  0.00  0.00     0.000 C
ATOM     22  O5  BGC B   2      41.454  65.113  10.7820  0.00  0.00     0.000 O
ATOM     23   O  BGC B   2      38.984  67.807  10.7000  0.00  0.00     0.000 O
ATOM     25  HD  BGC B   2      39.267  67.374  10.0050  0.00  0.00     0.000 HD
ATOM     25   O  BGC B   2      40.402  68.147   8.2340  0.00  0.00     0.000 O
ATOM     27  HD  BGC B   2      40.685  67.714   7.5390  0.00  0.00     0.000 HD
ATOM     27   C  BGC B   2      42.827  63.955   9.2070  0.00  0.00     0.000 C
ATOM     28   O  BGC B   2      43.997  64.713   9.4700  0.00  0.00     0.000 O
ATOM     30  HD  BGC B   2      44.280  64.281   8.7750  0.00  0.00     0.000 HD
BRANCH 17 30
ATOM     30  O4  BGC B   3      40.214  65.974  12.4730  0.00  0.00     0.000 O
BRANCH 30 34
ATOM     31  C1  BGC B   3      38.861  64.285  15.9730  0.00  0.00     0.000 C
ATOM     32  C2  BGC B   3      40.024  63.541  15.3170  0.00  0.00     0.000 C
ATOM     33  C3  BGC B   3      40.676  64.453  14.2930  0.00  0.00     0.000 C
ATOM     34  C4  BGC B   3      39.637  64.948  13.2880  0.00  0.00     0.000 C
ATOM     35  C5  BGC B   3      38.444  65.547  14.0130  0.00  0.00     0.000 C
ATOM     36  O5  BGC B   3      37.929  64.596  14.9490  0.00  0.00     0.000 O
ATOM     37   O  BGC B   3      40.994  63.206  16.3070  0.00  0.00     0.000 O
ATOM     39  HD  BGC B   3      41.402  62.719  15.7190  0.00  0.00     0.000 HD
ATOM     39   O  BGC B   3      41.704  63.728  13.6350  0.00  0.00     0.000 O
ATOM     41  HD  BGC B   3      42.112  63.240  13.0460  0.00  0.00     0.000 HD
ATOM     41   C  BGC B   3      37.314  65.986  13.0880  0.00  0.00     0.000 C
ATOM     42   O  BGC B   3      36.867  64.896  12.3170  0.00  0.00     0.000 O
ATOM     44  HD  BGC B   3      37.275  64.409  11.7280  0.00  0.00     0.000 HD
BRANCH 31 44
ATOM     44  O4  BGC B   4      38.221  63.380  16.8350  0.00  0.00     0.000 O
BRANCH 44 48
ATOM     45  C1  BGC B   4      36.142  63.288  20.3660  0.00  0.00     0.000 C
ATOM     46  C2  BGC B   4      35.359  63.830  19.1790  0.00  0.00     0.000 C
ATOM     47  C3  BGC B   4      36.063  63.456  17.8980  0.00  0.00     0.000 C
ATOM     48  C4  BGC B   4      37.523  63.917  17.9400  0.00  0.00     0.000 C
ATOM     49  C5  BGC B   4      38.212  63.414  19.2140  0.00  0.00     0.000 C
ATOM     50  O5  BGC B   4      37.464  63.830  20.3660  0.00  0.00     0.000 O
ATOM     51   O  BGC B   4      34.032  63.272  19.1670  0.00  0.00     0.000 O
ATOM     53  HD  BGC B   4      34.391  62.785  18.5470  0.00  0.00     0.000 HD
ATOM     53   O  BGC B   4      35.388  64.083  16.7990  0.00  0.00     0.000 O
ATOM     55  HD  BGC B   4      35.747  63.596  16.1800  0.00  0.00     0.000 HD
ATOM     55   C  BGC B   4      39.632  63.919  19.4020  0.00  0.00     0.000 C
ATOM     56   O  BGC B   4      39.597  65.346  19.3480  0.00  0.00     0.000 O
ATOM     58  HD  BGC B   4      39.956  64.859  18.7290  0.00  0.00     0.000 HD
BRANCH 45 58
ATOM     58  O4  BGC B   5      35.568  63.893  21.5240  0.00  0.00     0.000 O
BRANCH 58 62
ATOM     59  C1  BGC B   5      34.141  62.967  25.3000  0.00  0.00     0.000 C
ATOM     60  C2  BGC B   5      35.650  63.014  25.1680  0.00  0.00     0.000 C
ATOM     61  C3  BGC B   5      36.052  63.751  23.9050  0.00  0.00     0.000 C
ATOM     62  C4  BGC B   5      35.365  63.115  22.7060  0.00  0.00     0.000 C
ATOM     63  C5  BGC B   5      33.849  63.025  22.9360  0.00  0.00     0.000 C
ATOM     64  O5  BGC B   5      33.609  62.312  24.1440  0.00  0.00     0.000 O
ATOM     65   O  BGC B   5      33.718  61.016  21.7350  0.00  0.00     0.000 O
ATOM     67  HD  BGC B   5      34.145  60.554  21.1400  0.00  0.00     0.000 HD
ATOM     67   O  BGC B   5      33.718  61.016  21.7350  0.00  0.00     0.000 O
ATOM     69  HD  BGC B   5      34.145  60.554  21.1400  0.00  0.00     0.000 HD
ENDBRANCH 58 62
ENDBRANCH 45 58
ENDBRANCH 44 48
ENDBRANCH 31 44
ENDBRANCH 30 34
ENDBRANCH 17 30
ENDBRANCH 16 20
ENDBRANCH 1 16
TORSDOF 8
ENDMDL
MODEL 58
REMARK VINA RESULT:      -0.1     52.486     57.507
ROOT
ATOM      1  C1  BGC B   1      19.131  60.808  31.9730  0.00  0.00     0.000 C
ATOM      2  C2  BGC B   1      18.245  60.455  33.1660  0.00  0.00     0.000 C
ATOM      3  C3  BGC B   1      17.769  61.720  33.8540  0.00  0.00     0.000 C
ATOM      4  C4  BGC B   1      18.946  62.630  34.1840  0.00  0.00     0.000 C
ATOM      5  C5  BGC B   1      19.718  62.903  32.9010  0.00  0.00     0.000 C
ATOM      6  O5  BGC B   1      20.199  61.638  32.4110  0.00  0.00     0.000 O
ATOM      7   O  BGC B   1      17.106  59.709  32.7050  0.00  0.00     0.000 O
ATOM      9  HD  BGC B   1      16.377  59.760  33.1700  0.00  0.00     0.000 HD
ATOM      9   O  BGC B   1      17.055  61.360  35.0410  0.00  0.00     0.000 O
ATOM     11  HD  BGC B   1      16.326  61.411  35.5050  0.00  0.00     0.000 HD
ATOM     11   O  BGC B   1      18.469  63.843  34.7250  0.00  0.00     0.000 O
ATOM     13  HD  BGC B   1      17.740  63.893  35.1900  0.00  0.00     0.000 HD
ATOM     13   C  BGC B   1      20.904  63.844  33.0570  0.00  0.00     0.000 C
ATOM     14   O  BGC B   1      21.821  63.399  34.0520  0.00  0.00     0.000 O
ATOM     16  HD  BGC B   1      21.092  63.450  34.5170  0.00  0.00     0.000 HD
ENDROOT
BRANCH 1 16
ATOM     16  O4  BGC B   2      19.751  59.591  31.5620  0.00  0.00     0.000 O
BRANCH 16 20
ATOM     17  C1  BGC B   2      21.078  57.657  28.2400  0.00  0.00     0.000 C
ATOM     18  C2  BGC B   2      21.996  58.779  28.7020  0.00  0.00     0.000 C
ATOM     19  C3  BGC B   2      21.601  59.175  30.1230  0.00  0.00     0.000 C
ATOM     20  C4  BGC B   2      20.125  59.509  30.1890  0.00  0.00     0.000 C
ATOM     21  C5  BGC B   2      19.254  58.433  29.5400  0.00  0.00     0.000 C
ATOM     22  O5  BGC B   2      19.741  58.191  28.2140  0.00  0.00     0.000 O
ATOM     23   O  BGC B   2      23.362  58.333  28.7010  0.00  0.00     0.000 O
ATOM     25  HD  BGC B   2      22.774  58.452  29.3250  0.00  0.00     0.000 HD
ATOM     25   O  BGC B   2      22.379  60.287  30.5500  0.00  0.00     0.000 O
ATOM     27  HD  BGC B   2      21.791  60.407  31.1750  0.00  0.00     0.000 HD
ATOM     27   C  BGC B   2      17.790  58.841  29.4290  0.00  0.00     0.000 C
ATOM     28   O  BGC B   2      17.597  60.058  28.7270  0.00  0.00     0.000 O
ATOM     30  HD  BGC B   2      17.010  60.178  29.3510  0.00  0.00     0.000 HD
BRANCH 17 30
ATOM     30  O4  BGC B   3      21.399  57.397  26.8870  0.00  0.00     0.000 O
BRANCH 30 34
ATOM     31  C1  BGC B   3      21.463  54.274  24.2100  0.00  0.00     0.000 C
ATOM     32  C2  BGC B   3      20.063  54.751  24.5950  0.00  0.00     0.000 C
ATOM     33  C3  BGC B   3      20.172  56.119  25.2440  0.00  0.00     0.000 C
ATOM     34  C4  BGC B   3      21.136  56.067  26.4290  0.00  0.00     0.000 C
ATOM     35  C5  BGC B   3      22.458  55.451  26.0080  0.00  0.00     0.000 C
ATOM     36  O5  BGC B   3      22.219  54.174  25.4070  0.00  0.00     0.000 O
ATOM     37   O  BGC B   3      19.262  54.870  23.4220  0.00  0.00     0.000 O
ATOM     39  HD  BGC B   3      18.570  54.994  23.9270  0.00  0.00     0.000 HD
ATOM     39   O  BGC B   3      18.877  56.519  25.6680  0.00  0.00     0.000 O
ATOM     41  HD  BGC B   3      18.185  56.644  26.1740  0.00  0.00     0.000 HD
ATOM     41   C  BGC B   3      23.451  55.275  27.1510  0.00  0.00     0.000 C
ATOM     42   O  BGC B   3      22.888  54.476  28.1650  0.00  0.00     0.000 O
ATOM     44  HD  BGC B   3      22.196  54.601  28.6710  0.00  0.00     0.000 HD
BRANCH 31 44
ATOM     44  O4  BGC B   4      21.334  52.968  23.7090  0.00  0.00     0.000 O
BRANCH 44 48
ATOM     45  C1  BGC B   4      23.047  50.426  20.9860  0.00  0.00     0.000 C
ATOM     46  C2  BGC B   4      23.866  50.654  22.2490  0.00  0.00     0.000 C
ATOM     47  C3  BGC B   4      22.989  51.264  23.3140  0.00  0.00     0.000 C
ATOM     48  C4  BGC B   4      22.307  52.529  22.7820  0.00  0.00     0.000 C
ATOM     49  C5  BGC B   4      21.590  52.238  21.4580  0.00  0.00     0.000 C
ATOM     50  O5  BGC B   4      22.515  51.668  20.5210  0.00  0.00     0.000 O
ATOM     51   O  BGC B   4      24.389  49.402  22.7310  0.00  0.00     0.000 O
ATOM     53  HD  BGC B   4      23.734  49.501  23.2880  0.00  0.00     0.000 HD
ATOM     53   O  BGC B   4      23.802  51.594  24.4500  0.00  0.00     0.000 O
ATOM     55  HD  BGC B   4      23.146  51.692  25.0070  0.00  0.00     0.000 HD
ATOM     55   C  BGC B   4      20.981  53.459  20.7930  0.00  0.00     0.000 C
ATOM     56   O  BGC B   4      22.017  54.429  20.6300  0.00  0.00     0.000 O
ATOM     58  HD  BGC B   4      21.362  54.527  21.1880  0.00  0.00     0.000 HD
BRANCH 45 58
ATOM     58  O4  BGC B   5      23.987  50.098  19.9640  0.00  0.00     0.000 O
BRANCH 58 62
ATOM     59  C1  BGC B   5      24.680  47.325  16.9680  0.00  0.00     0.000 C
ATOM     60  C2  BGC B   5      23.662  48.397  16.6380  0.00  0.00     0.000 C
ATOM     61  C3  BGC B   5      23.788  49.565  17.5980  0.00  0.00     0.000 C
ATOM     62  C4  BGC B   5      23.685  49.060  19.0280  0.00  0.00     0.000 C
ATOM     63  C5  BGC B   5      24.687  47.922  19.2740  0.00  0.00     0.000 C
ATOM     64  O5  BGC B   5      24.460  46.895  18.3150  0.00  0.00     0.000 O
ATOM     65   O  BGC B   5      23.214  46.854  20.7520  0.00  0.00     0.000 O
ATOM     67  HD  BGC B   5      22.528  47.013  21.2580  0.00  0.00     0.000 HD
ATOM     67   O  BGC B   5      23.214  46.854  20.7520  0.00  0.00     0.000 O
ATOM     69  HD  BGC B   5      22.528  47.013  21.2580  0.00  0.00     0.000 HD
ENDBRANCH 58 62
ENDBRANCH 45 58
ENDBRANCH 44 48
ENDBRANCH 31 44
ENDBRANCH 30 34
ENDBRANCH 17 30
ENDBRANCH 16 20
ENDBRANCH 1 16
TORSDOF 8
ENDMDL
MODEL 59
REMARK VINA RESULT:      -0.1     51.159     56.284
ROOT
ATOM      1  C1  BGC B   1      19.669  60.013  30.3470  0.00  0.00     0.000 C
ATOM      2  C2  BGC B   1      18.874  59.640  31.5970  0.00  0.00     0.000 C
ATOM      3  C3  BGC B   1      18.552  60.886  32.4000  0.00  0.00     0.000 C
ATOM      4  C4  BGC B   1      19.814  61.696  32.6680  0.00  0.00     0.000 C
ATOM      5  C5  BGC B   1      20.482  62.002  31.3350  0.00  0.00     0.000 C
ATOM      6  O5  BGC B   1      20.827  60.743  30.7280  0.00  0.00     0.000 O
ATOM      7   O  BGC B   1      17.648  59.000  31.2050  0.00  0.00     0.000 O
ATOM      9  HD  BGC B   1      16.970  59.067  31.7390  0.00  0.00     0.000 HD
ATOM      9   O  BGC B   1      17.927  60.496  33.6270  0.00  0.00     0.000 O
ATOM     11  HD  BGC B   1      17.248  60.563  34.1610  0.00  0.00     0.000 HD
ATOM     11   O  BGC B   1      19.475  62.899  33.3230  0.00  0.00     0.000 O
ATOM     13  HD  BGC B   1      18.797  62.966  33.8570  0.00  0.00     0.000 HD
ATOM     13   C  BGC B   1      21.740  62.853  31.4320  0.00  0.00     0.000 C
ATOM     14   O  BGC B   1      22.712  62.287  32.3060  0.00  0.00     0.000 O
ATOM     16  HD  BGC B   1      22.034  62.354  32.8410  0.00  0.00     0.000 HD
ENDROOT
BRANCH 1 16
ATOM     16  O4  BGC B   2      20.162  58.788  29.8080  0.00  0.00     0.000 O
BRANCH 16 20
ATOM     17  C1  BGC B   2      21.041  56.993  26.2670  0.00  0.00     0.000 C
ATOM     18  C2  BGC B   2      22.073  58.022  26.7030  0.00  0.00     0.000 C
ATOM     19  C3  BGC B   2      21.839  58.349  28.1760  0.00  0.00     0.000 C
ATOM     20  C4  BGC B   2      20.402  58.772  28.4030  0.00  0.00     0.000 C
ATOM     21  C5  BGC B   2      19.403  57.798  27.7780  0.00  0.00     0.000 C
ATOM     22  O5  BGC B   2      19.748  57.611  26.4000  0.00  0.00     0.000 O
ATOM     23   O  BGC B   2      23.399  57.490  26.5450  0.00  0.00     0.000 O
ATOM     25  HD  BGC B   2      22.881  57.607  27.2290  0.00  0.00     0.000 HD
ATOM     25   O  BGC B   2      22.728  59.380  28.5910  0.00  0.00     0.000 O
ATOM     27  HD  BGC B   2      22.210  59.496  29.2750  0.00  0.00     0.000 HD
ATOM     27   C  BGC B   2      17.967  58.304  27.8330  0.00  0.00     0.000 C
ATOM     28   O  BGC B   2      17.795  59.574  27.2240  0.00  0.00     0.000 O
ATOM     30  HD  BGC B   2      17.277  59.690  27.9080  0.00  0.00     0.000 HD
BRANCH 17 30
ATOM     30  O4  BGC B   3      21.217  56.801  24.8760  0.00  0.00     0.000 O
BRANCH 30 34
ATOM     31  C1  BGC B   3      20.819  53.860  22.0270  0.00  0.00     0.000 C
ATOM     32  C2  BGC B   3      19.497  54.399  22.5720  0.00  0.00     0.000 C
ATOM     33  C3  BGC B   3      19.759  55.713  23.2870  0.00  0.00     0.000 C
ATOM     34  C4  BGC B   3      20.821  55.523  24.3690  0.00  0.00     0.000 C
ATOM     35  C5  BGC B   3      22.054  54.852  23.7870  0.00  0.00     0.000 C
ATOM     36  O5  BGC B   3      21.672  53.635  23.1380  0.00  0.00     0.000 O
ATOM     37   O  BGC B   3      18.601  54.645  21.4900  0.00  0.00     0.000 O
ATOM     39  HD  BGC B   3      17.969  54.780  22.0660  0.00  0.00     0.000 HD
ATOM     39   O  BGC B   3      18.540  56.166  23.8560  0.00  0.00     0.000 O
ATOM     41  HD  BGC B   3      17.908  56.302  24.4320  0.00  0.00     0.000 HD
ATOM     41   C  BGC B   3      23.133  54.540  24.8180  0.00  0.00     0.000 C
ATOM     42   O  BGC B   3      22.611  53.715  25.8320  0.00  0.00     0.000 O
ATOM     44  HD  BGC B   3      21.979  53.850  26.4080  0.00  0.00     0.000 HD
BRANCH 31 44
ATOM     44  O4  BGC B   4      20.554  52.600  21.4650  0.00  0.00     0.000 O
BRANCH 44 48
ATOM     45  C1  BGC B   4      21.828  50.136  18.4470  0.00  0.00     0.000 C
ATOM     46  C2  BGC B   4      22.774  50.230  19.6360  0.00  0.00     0.000 C
ATOM     47  C3  BGC B   4      22.043  50.824  20.8150  0.00  0.00     0.000 C
ATOM     48  C4  BGC B   4      21.404  52.161  20.4260  0.00  0.00     0.000 C
ATOM     49  C5  BGC B   4      20.550  52.003  19.1620  0.00  0.00     0.000 C
ATOM     50  O5  BGC B   4      21.344  51.437  18.1080  0.00  0.00     0.000 O
ATOM     51   O  BGC B   4      23.251  48.918  19.9920  0.00  0.00     0.000 O
ATOM     53  HD  BGC B   4      22.658  49.022  20.6140  0.00  0.00     0.000 HD
ATOM     53   O  BGC B   4      22.977  51.027  21.8840  0.00  0.00     0.000 O
ATOM     55  HD  BGC B   4      22.385  51.130  22.5070  0.00  0.00     0.000 HD
ATOM     55   C  BGC B   4      19.969  53.301  18.6310  0.00  0.00     0.000 C
ATOM     56   O  BGC B   4      21.051  54.211  18.4260  0.00  0.00     0.000 O
ATOM     58  HD  BGC B   4      20.458  54.315  19.0490  0.00  0.00     0.000 HD
BRANCH 45 58
ATOM     58  O4  BGC B   5      22.646  49.816  17.3220  0.00  0.00     0.000 O
BRANCH 58 62
ATOM     59  C1  BGC B   5      22.867  47.204  14.1160  0.00  0.00     0.000 C
ATOM     60  C2  BGC B   5      21.900  48.358  13.9490  0.00  0.00     0.000 C
ATOM     61  C3  BGC B   5      22.194  49.451  14.9580  0.00  0.00     0.000 C
ATOM     62  C4  BGC B   5      22.188  48.862  16.3600  0.00  0.00     0.000 C
ATOM     63  C5  BGC B   5      23.126  47.649  16.4420  0.00  0.00     0.000 C
ATOM     64  O5  BGC B   5      22.742  46.702  15.4510  0.00  0.00     0.000 O
ATOM     65   O  BGC B   5      21.725  46.583  17.9900  0.00  0.00     0.000 O
ATOM     67  HD  BGC B   5      21.101  46.752  18.5670  0.00  0.00     0.000 HD
ATOM     67   O  BGC B   5      21.725  46.583  17.9900  0.00  0.00     0.000 O
ATOM     69  HD  BGC B   5      21.101  46.752  18.5670  0.00  0.00     0.000 HD
ENDBRANCH 58 62
ENDBRANCH 45 58
ENDBRANCH 44 48
ENDBRANCH 31 44
ENDBRANCH 30 34
ENDBRANCH 17 30
ENDBRANCH 16 20
ENDBRANCH 1 16
TORSDOF 8
ENDMDL
MODEL 60
REMARK VINA RESULT:      -0.1     57.402     60.400
ROOT
ATOM      1  C1  BGC B   1      16.384  57.323  29.0350  0.00  0.00     0.000 C
ATOM      2  C2  BGC B   1      15.630  58.651  29.0580  0.00  0.00     0.000 C
ATOM      3  C3  BGC B   1      14.579  58.673  27.9650  0.00  0.00     0.000 C
ATOM      4  C4  BGC B   1      15.195  58.316  26.6180  0.00  0.00     0.000 C
ATOM      5  C5  BGC B   1      15.893  56.970  26.7490  0.00  0.00     0.000 C
ATOM      6  O5  BGC B   1      16.928  57.116  27.7390  0.00  0.00     0.000 O
ATOM      7   O  BGC B   1      14.987  58.808  30.3340  0.00  0.00     0.000 O
ATOM      9  HD  BGC B   1      14.268  59.289  30.3670  0.00  0.00     0.000 HD
ATOM      9   O  BGC B   1      13.982  59.972  27.9230  0.00  0.00     0.000 O
ATOM     11  HD  BGC B   1      13.262  60.453  27.9550  0.00  0.00     0.000 HD
ATOM     11   O  BGC B   1      14.183  58.240  25.6390  0.00  0.00     0.000 O
ATOM     13  HD  BGC B   1      13.463  58.721  25.6710  0.00  0.00     0.000 HD
ATOM     13   C  BGC B   1      16.522  56.448  25.4650  0.00  0.00     0.000 C
ATOM     14   O  BGC B   1      17.436  57.378  24.8920  0.00  0.00     0.000 O
ATOM     16  HD  BGC B   1      16.717  57.859  24.9250  0.00  0.00     0.000 HD
ENDROOT
BRANCH 1 16
ATOM     16  O4  BGC B   2      17.513  57.491  29.8890  0.00  0.00     0.000 O
BRANCH 16 20
ATOM     17  C1  BGC B   2      19.880  55.438  32.4820  0.00  0.00     0.000 C
ATOM     18  C2  BGC B   2      20.153  55.118  31.0200  0.00  0.00     0.000 C
ATOM     19  C3  BGC B   2      19.487  56.187  30.1570  0.00  0.00     0.000 C
ATOM     20  C4  BGC B   2      18.018  56.308  30.5040  0.00  0.00     0.000 C
ATOM     21  C5  BGC B   2      17.783  56.438  32.0090  0.00  0.00     0.000 C
ATOM     22  O5  BGC B   2      18.455  55.358  32.6700  0.00  0.00     0.000 O
ATOM     23   O  BGC B   2      21.569  55.126  30.7690  0.00  0.00     0.000 O
ATOM     25  HD  BGC B   2      20.931  55.688  30.6060  0.00  0.00     0.000 HD
ATOM     25   O  BGC B   2      19.643  55.865  28.7800  0.00  0.00     0.000 O
ATOM     27  HD  BGC B   2      19.006  56.427  28.6170  0.00  0.00     0.000 HD
ATOM     27   C  BGC B   2      16.309  56.370  32.3890  0.00  0.00     0.000 C
ATOM     28   O  BGC B   2      15.666  55.191  31.9360  0.00  0.00     0.000 O
ATOM     30  HD  BGC B   2      15.028  55.753  31.7730  0.00  0.00     0.000 HD
BRANCH 17 30
ATOM     30  O4  BGC B   3      20.413  54.369  33.2410  0.00  0.00     0.000 O
BRANCH 30 34
ATOM     31  C1  BGC B   3      22.112  53.663  36.9210  0.00  0.00     0.000 C
ATOM     32  C2  BGC B   3      20.614  53.963  36.9610  0.00  0.00     0.000 C
ATOM     33  C3  BGC B   3      20.044  53.807  35.5620  0.00  0.00     0.000 C
ATOM     34  C4  BGC B   3      20.808  54.693  34.5780  0.00  0.00     0.000 C
ATOM     35  C5  BGC B   3      22.302  54.444  34.6940  0.00  0.00     0.000 C
ATOM     36  O5  BGC B   3      22.709  54.615  36.0550  0.00  0.00     0.000 O
ATOM     37   O  BGC B   3      19.964  53.029  37.8200  0.00  0.00     0.000 O
ATOM     39  HD  BGC B   3      19.240  53.501  37.7580  0.00  0.00     0.000 HD
ATOM     39   O  BGC B   3      18.670  54.163  35.5930  0.00  0.00     0.000 O
ATOM     41  HD  BGC B   3      17.947  54.635  35.5320  0.00  0.00     0.000 HD
ATOM     41   C  BGC B   3      23.151  55.353  33.8110  0.00  0.00     0.000 C
ATOM     42   O  BGC B   3      22.897  56.703  34.1180  0.00  0.00     0.000 O
ATOM     44  HD  BGC B   3      22.174  57.175  34.0570  0.00  0.00     0.000 HD
BRANCH 31 44
ATOM     44  O4  BGC B   4      22.620  53.916  38.2050  0.00  0.00     0.000 O
BRANCH 44 48
ATOM     45  C1  BGC B   4      25.561  52.646  40.7630  0.00  0.00     0.000 C
ATOM     46  C2  BGC B   4      26.049  53.508  39.6080  0.00  0.00     0.000 C
ATOM     47  C3  BGC B   4      24.877  54.225  38.9850  0.00  0.00     0.000 C
ATOM     48  C4  BGC B   4      23.789  53.221  38.5900  0.00  0.00     0.000 C
ATOM     49  C5  BGC B   4      23.426  52.324  39.7800  0.00  0.00     0.000 C
ATOM     50  O5  BGC B   4      24.610  51.692  40.2890  0.00  0.00     0.000 O
ATOM     51   O  BGC B   4      26.996  54.483  40.0860  0.00  0.00     0.000 O
ATOM     53  HD  BGC B   4      26.300  54.993  40.0090  0.00  0.00     0.000 HD
ATOM     53   O  BGC B   4      25.332  54.929  37.8200  0.00  0.00     0.000 O
ATOM     55  HD  BGC B   4      24.636  55.439  37.7430  0.00  0.00     0.000 HD
ATOM     55   C  BGC B   4      22.437  51.219  39.4540  0.00  0.00     0.000 C
ATOM     56   O  BGC B   4      22.972  50.463  38.3670  0.00  0.00     0.000 O
ATOM     58  HD  BGC B   4      22.277  50.973  38.2900  0.00  0.00     0.000 HD
BRANCH 45 58
ATOM     58  O4  BGC B   5      26.665  51.817  41.1260  0.00  0.00     0.000 O
BRANCH 58 62
ATOM     59  C1  BGC B   5      28.827  50.568  44.4290  0.00  0.00     0.000 C
ATOM     60  C2  BGC B   5      27.502  49.865  44.2160  0.00  0.00     0.000 C
ATOM     61  C3  BGC B   5      27.004  50.083  42.8000  0.00  0.00     0.000 C
ATOM     62  C4  BGC B   5      26.947  51.574  42.5060  0.00  0.00     0.000 C
ATOM     63  C5  BGC B   5      28.295  52.240  42.8180  0.00  0.00     0.000 C
ATOM     64  O5  BGC B   5      28.643  51.963  44.1700  0.00  0.00     0.000 O
ATOM     65   O  BGC B   5      27.238  54.216  43.5050  0.00  0.00     0.000 O
ATOM     67  HD  BGC B   5      26.493  54.650  43.4210  0.00  0.00     0.000 HD
ATOM     67   O  BGC B   5      27.238  54.216  43.5050  0.00  0.00     0.000 O
ATOM     69  HD  BGC B   5      26.493  54.650  43.4210  0.00  0.00     0.000 HD
ENDBRANCH 58 62
ENDBRANCH 45 58
ENDBRANCH 44 48
ENDBRANCH 31 44
ENDBRANCH 30 34
ENDBRANCH 17 30
ENDBRANCH 16 20
ENDBRANCH 1 16
TORSDOF 8
ENDMDL
MODEL 61
REMARK VINA RESULT:      -0.1     45.830     51.002
ROOT
ATOM      1  C1  BGC B   1      28.316  32.335  34.3320  0.00  0.00     0.000 C
ATOM      2  C2  BGC B   1      27.629  31.548  33.2170  0.00  0.00     0.000 C
ATOM      3  C3  BGC B   1      28.644  31.135  32.1690  0.00  0.00     0.000 C
ATOM      4  C4  BGC B   1      29.449  32.338  31.6940  0.00  0.00     0.000 C
ATOM      5  C5  BGC B   1      30.081  33.004  32.9080  0.00  0.00     0.000 C
ATOM      6  O5  BGC B   1      29.011  33.438  33.7670  0.00  0.00     0.000 O
ATOM      7   O  BGC B   1      27.019  30.372  33.7740  0.00  0.00     0.000 O
ATOM      9  HD  BGC B   1      26.925  29.684  33.2570  0.00  0.00     0.000 HD
ATOM      9   O  BGC B   1      27.956  30.519  31.0760  0.00  0.00     0.000 O
ATOM     11  HD  BGC B   1      27.862  29.830  30.5590  0.00  0.00     0.000 HD
ATOM     11   O  BGC B   1      30.455  31.912  30.8010  0.00  0.00     0.000 O
ATOM     13  HD  BGC B   1      30.361  31.224  30.2840  0.00  0.00     0.000 HD
ATOM     13   C  BGC B   1      30.964  34.202  32.5910  0.00  0.00     0.000 C
ATOM     14   O  BGC B   1      30.279  35.196  31.8360  0.00  0.00     0.000 O
ATOM     16  HD  BGC B   1      30.185  34.508  31.3190  0.00  0.00     0.000 HD
ENDROOT
BRANCH 1 16
ATOM     16  O4  BGC B   2      27.272  32.914  35.1120  0.00  0.00     0.000 O
BRANCH 16 20
ATOM     17  C1  BGC B   2      26.357  33.955  38.9350  0.00  0.00     0.000 C
ATOM     18  C2  BGC B   2      27.332  34.907  38.2590  0.00  0.00     0.000 C
ATOM     19  C3  BGC B   2      27.313  34.635  36.7570  0.00  0.00     0.000 C
ATOM     20  C4  BGC B   2      27.579  33.169  36.4800  0.00  0.00     0.000 C
ATOM     21  C5  BGC B   2      26.701  32.248  37.3270  0.00  0.00     0.000 C
ATOM     22  O5  BGC B   2      26.844  32.620  38.7040  0.00  0.00     0.000 O
ATOM     23   O  BGC B   2      26.938  36.269  38.4960  0.00  0.00     0.000 O
ATOM     25  HD  BGC B   2      26.867  35.736  37.8160  0.00  0.00     0.000 HD
ATOM     25   O  BGC B   2      28.285  35.444  36.1050  0.00  0.00     0.000 O
ATOM     27  HD  BGC B   2      28.214  34.912  35.4260  0.00  0.00     0.000 HD
ATOM     27   C  BGC B   2      27.086  30.779  37.2010  0.00  0.00     0.000 C
ATOM     28   O  BGC B   2      28.444  30.524  37.5230  0.00  0.00     0.000 O
ATOM     30  HD  BGC B   2      28.373  29.992  36.8440  0.00  0.00     0.000 HD
BRANCH 17 30
ATOM     30  O4  BGC B   3      26.486  34.159  40.3300  0.00  0.00     0.000 O
BRANCH 30 34
ATOM     31  C1  BGC B   3      24.220  33.996  43.7590  0.00  0.00     0.000 C
ATOM     32  C2  BGC B   3      24.540  32.634  43.1450  0.00  0.00     0.000 C
ATOM     33  C3  BGC B   3      25.680  32.797  42.1550  0.00  0.00     0.000 C
ATOM     34  C4  BGC B   3      25.327  33.857  41.1130  0.00  0.00     0.000 C
ATOM     35  C5  BGC B   3      24.880  35.139  41.7930  0.00  0.00     0.000 C
ATOM     36  O5  BGC B   3      23.812  34.849  42.7010  0.00  0.00     0.000 O
ATOM     37   O  BGC B   3      24.959  31.736  44.1710  0.00  0.00     0.000 O
ATOM     39  HD  BGC B   3      24.924  31.089  43.5960  0.00  0.00     0.000 HD
ATOM     39   O  BGC B   3      25.919  31.543  41.5340  0.00  0.00     0.000 O
ATOM     41  HD  BGC B   3      25.885  30.896  40.9590  0.00  0.00     0.000 HD
ATOM     41   C  BGC B   3      24.420  36.225  40.8270  0.00  0.00     0.000 C
ATOM     42   O  BGC B   3      23.361  35.749  40.0300  0.00  0.00     0.000 O
ATOM     44  HD  BGC B   3      23.327  35.102  39.4560  0.00  0.00     0.000 HD
BRANCH 31 44
ATOM     44  O4  BGC B   4      23.099  33.824  44.5880  0.00  0.00     0.000 O
BRANCH 44 48
ATOM     45  C1  BGC B   4      21.450  35.288  48.0440  0.00  0.00     0.000 C
ATOM     46  C2  BGC B   4      21.345  36.218  46.8440  0.00  0.00     0.000 C
ATOM     47  C3  BGC B   4      21.615  35.440  45.5800  0.00  0.00     0.000 C
ATOM     48  C4  BGC B   4      22.958  34.709  45.6810  0.00  0.00     0.000 C
ATOM     49  C5  BGC B   4      23.022  33.875  46.9660  0.00  0.00     0.000 C
ATOM     50  O5  BGC B   4      22.756  34.713  48.1010  0.00  0.00     0.000 O
ATOM     51   O  BGC B   4      20.024  36.786  46.7740  0.00  0.00     0.000 O
ATOM     53  HD  BGC B   4      19.947  36.184  46.1560  0.00  0.00     0.000 HD
ATOM     53   O  BGC B   4      21.643  36.352  44.4730  0.00  0.00     0.000 O
ATOM     55  HD  BGC B   4      21.566  35.750  43.8550  0.00  0.00     0.000 HD
ATOM     55   C  BGC B   4      24.362  33.205  47.2130  0.00  0.00     0.000 C
ATOM     56   O  BGC B   4      25.367  34.220  47.1920  0.00  0.00     0.000 O
ATOM     58  HD  BGC B   4      25.290  33.618  46.5740  0.00  0.00     0.000 HD
BRANCH 45 58
ATOM     58  O4  BGC B   5      21.441  36.131  49.1950  0.00  0.00     0.000 O
BRANCH 58 62
ATOM     59  C1  BGC B   5      19.605  36.559  52.8830  0.00  0.00     0.000 C
ATOM     60  C2  BGC B   5      20.706  35.519  52.8210  0.00  0.00     0.000 C
ATOM     61  C3  BGC B   5      21.570  35.730  51.5920  0.00  0.00     0.000 C
ATOM     62  C4  BGC B   5      20.692  35.748  50.3510  0.00  0.00     0.000 C
ATOM     63  C5  BGC B   5      19.552  36.765  50.5100  0.00  0.00     0.000 C
ATOM     64  O5  BGC B   5      18.820  36.454  51.6910  0.00  0.00     0.000 O
ATOM     65   O  BGC B   5      18.089  35.421  49.2630  0.00  0.00     0.000 O
ATOM     67  HD  BGC B   5      18.090  34.782  48.6790  0.00  0.00     0.000 HD
ATOM     67   O  BGC B   5      18.089  35.421  49.2630  0.00  0.00     0.000 O
ATOM     69  HD  BGC B   5      18.090  34.782  48.6790  0.00  0.00     0.000 HD
ENDBRANCH 58 62
ENDBRANCH 45 58
ENDBRANCH 44 48
ENDBRANCH 31 44
ENDBRANCH 30 34
ENDBRANCH 17 30
ENDBRANCH 16 20
ENDBRANCH 1 16
TORSDOF 8
ENDMDL
MODEL 62
REMARK VINA RESULT:      -0.1     71.293     76.049
ROOT
ATOM      1  C1  BGC B   1      23.680  72.455  29.6740  0.00  0.00     0.000 C
ATOM      2  C2  BGC B   1      25.183  72.598  29.9030  0.00  0.00     0.000 C
ATOM      3  C3  BGC B   1      25.871  73.001  28.6130  0.00  0.00     0.000 C
ATOM      4  C4  BGC B   1      25.487  72.057  27.4800  0.00  0.00     0.000 C
ATOM      5  C5  BGC B   1      23.970  72.033  27.3660  0.00  0.00     0.000 C
ATOM      6  O5  BGC B   1      23.452  71.537  28.6140  0.00  0.00     0.000 O
ATOM      7   O  BGC B   1      25.416  73.608  30.8990  0.00  0.00     0.000 O
ATOM      9  HD  BGC B   1      26.167  74.039  30.8670  0.00  0.00     0.000 HD
ATOM      9   O  BGC B   1      27.286  72.997  28.8220  0.00  0.00     0.000 O
ATOM     11  HD  BGC B   1      28.036  73.429  28.7900  0.00  0.00     0.000 HD
ATOM     11   O  BGC B   1      26.054  72.514  26.2710  0.00  0.00     0.000 O
ATOM     13  HD  BGC B   1      26.804  72.945  26.2390  0.00  0.00     0.000 HD
ATOM     13   C  BGC B   1      23.428  71.166  26.2380  0.00  0.00     0.000 C
ATOM     14   O  BGC B   1      23.898  69.823  26.3130  0.00  0.00     0.000 O
ATOM     16  HD  BGC B   1      24.648  70.255  26.2810  0.00  0.00     0.000 HD
ENDROOT
BRANCH 1 16
ATOM     16  O4  BGC B   2      23.159  71.815  30.8380  0.00  0.00     0.000 O
BRANCH 16 20
ATOM     17  C1  BGC B   2      19.850  71.704  33.1990  0.00  0.00     0.000 C
ATOM     18  C2  BGC B   2      19.676  70.987  31.8680  0.00  0.00     0.000 C
ATOM     19  C3  BGC B   2      21.054  70.779  31.2460  0.00  0.00     0.000 C
ATOM     20  C4  BGC B   2      21.797  72.096  31.1520  0.00  0.00     0.000 C
ATOM     21  C5  BGC B   2      21.781  72.870  32.4710  0.00  0.00     0.000 C
ATOM     22  O5  BGC B   2      20.423  72.993  32.9100  0.00  0.00     0.000 O
ATOM     23   O  BGC B   2      19.055  69.707  32.0740  0.00  0.00     0.000 O
ATOM     25  HD  BGC B   2      19.870  69.957  31.9200  0.00  0.00     0.000 HD
ATOM     25   O  BGC B   2      20.920  70.196  29.9550  0.00  0.00     0.000 O
ATOM     27  HD  BGC B   2      21.734  70.446  29.8010  0.00  0.00     0.000 HD
ATOM     27   C  BGC B   2      22.356  74.274  32.3430  0.00  0.00     0.000 C
ATOM     28   O  BGC B   2      21.709  75.060  31.3550  0.00  0.00     0.000 O
ATOM     30  HD  BGC B   2      22.523  75.310  31.2010  0.00  0.00     0.000 HD
BRANCH 17 30
ATOM     30  O4  BGC B   3      18.551  71.978  33.6890  0.00  0.00     0.000 O
BRANCH 30 34
ATOM     31  C1  BGC B   3      16.552  72.368  37.2640  0.00  0.00     0.000 C
ATOM     32  C2  BGC B   3      17.514  73.512  36.9470  0.00  0.00     0.000 C
ATOM     33  C3  BGC B   3      17.869  73.460  35.4710  0.00  0.00     0.000 C
ATOM     34  C4  BGC B   3      18.433  72.086  35.1120  0.00  0.00     0.000 C
ATOM     35  C5  BGC B   3      17.493  70.990  35.5830  0.00  0.00     0.000 C
ATOM     36  O5  BGC B   3      17.233  71.155  36.9810  0.00  0.00     0.000 O
ATOM     37   O  BGC B   3      16.874  74.759  37.2130  0.00  0.00     0.000 O
ATOM     39  HD  BGC B   3      17.635  75.155  37.0950  0.00  0.00     0.000 HD
ATOM     39   O  BGC B   3      18.822  74.478  35.2020  0.00  0.00     0.000 O
ATOM     41  HD  BGC B   3      19.583  74.875  35.0840  0.00  0.00     0.000 HD
ATOM     41   C  BGC B   3      18.020  69.579  35.3470  0.00  0.00     0.000 C
ATOM     42   O  BGC B   3      19.262  69.410  35.9890  0.00  0.00     0.000 O
ATOM     44  HD  BGC B   3      20.023  69.807  35.8710  0.00  0.00     0.000 HD
BRANCH 31 44
ATOM     44  O4  BGC B   4      16.328  72.386  38.6500  0.00  0.00     0.000 O
BRANCH 44 48
ATOM     45  C1  BGC B   4      13.423  71.512  41.4080  0.00  0.00     0.000 C
ATOM     46  C2  BGC B   4      14.113  70.298  40.8020  0.00  0.00     0.000 C
ATOM     47  C3  BGC B   4      15.391  70.731  40.1270  0.00  0.00     0.000 C
ATOM     48  C4  BGC B   4      15.107  71.849  39.1180  0.00  0.00     0.000 C
ATOM     49  C5  BGC B   4      14.322  72.987  39.7810  0.00  0.00     0.000 C
ATOM     50  O5  BGC B   4      13.129  72.465  40.3850  0.00  0.00     0.000 O
ATOM     51   O  BGC B   4      14.427  69.344  41.8340  0.00  0.00     0.000 O
ATOM     53  HD  BGC B   4      15.213  69.689  41.7240  0.00  0.00     0.000 HD
ATOM     53   O  BGC B   4      15.962  69.602  39.4500  0.00  0.00     0.000 O
ATOM     55  HD  BGC B   4      16.748  69.948  39.3400  0.00  0.00     0.000 HD
ATOM     55   C  BGC B   4      13.892  74.090  38.8300  0.00  0.00     0.000 C
ATOM     56   O  BGC B   4      13.151  73.485  37.7690  0.00  0.00     0.000 O
ATOM     58  HD  BGC B   4      13.937  73.831  37.6590  0.00  0.00     0.000 HD
BRANCH 45 58
ATOM     58  O4  BGC B   5      12.122  71.071  41.7930  0.00  0.00     0.000 O
BRANCH 58 62
ATOM     59  C1  BGC B   5       9.490  71.144  44.9900  0.00  0.00     0.000 C
ATOM     60  C2  BGC B   5       9.557  72.419  44.1740  0.00  0.00     0.000 C
ATOM     61  C3  BGC B   5      10.205  72.156  42.8270  0.00  0.00     0.000 C
ATOM     62  C4  BGC B   5      11.563  71.505  43.0350  0.00  0.00     0.000 C
ATOM     63  C5  BGC B   5      11.437  70.267  43.9340  0.00  0.00     0.000 C
ATOM     64  O5  BGC B   5      10.822  70.648  45.1600  0.00  0.00     0.000 O
ATOM     65   O  BGC B   5      13.545  70.657  44.8820  0.00  0.00     0.000 O
ATOM     67  HD  BGC B   5      14.292  71.068  44.7270  0.00  0.00     0.000 HD
ATOM     67   O  BGC B   5      13.545  70.657  44.8820  0.00  0.00     0.000 O
ATOM     69  HD  BGC B   5      14.292  71.068  44.7270  0.00  0.00     0.000 HD
ENDBRANCH 58 62
ENDBRANCH 45 58
ENDBRANCH 44 48
ENDBRANCH 31 44
ENDBRANCH 30 34
ENDBRANCH 17 30
ENDBRANCH 16 20
ENDBRANCH 1 16
TORSDOF 8
ENDMDL
MODEL 63
REMARK VINA RESULT:      -0.1     26.707     29.588
ROOT
ATOM      1  C1  BGC B   1      17.034  12.495  21.8390  0.00  0.00     0.000 C
ATOM      2  C2  BGC B   1      18.226  12.174  20.9390  0.00  0.00     0.000 C
ATOM      3  C3  BGC B   1      17.749  11.858  19.5350  0.00  0.00     0.000 C
ATOM      4  C4  BGC B   1      16.666  10.786  19.5620  0.00  0.00     0.000 C
ATOM      5  C5  BGC B   1      15.548  11.254  20.4810  0.00  0.00     0.000 C
ATOM      6  O5  BGC B   1      16.111  11.416  21.7960  0.00  0.00     0.000 O
ATOM      7   O  BGC B   1      19.105  13.311  20.8950  0.00  0.00     0.000 O
ATOM      9  HD  BGC B   1      19.590  13.417  20.1860  0.00  0.00     0.000 HD
ATOM      9   O  BGC B   1      18.867  11.433  18.7510  0.00  0.00     0.000 O
ATOM     11  HD  BGC B   1      19.352  11.540  18.0410  0.00  0.00     0.000 HD
ATOM     11   O  BGC B   1      16.165  10.586  18.2580  0.00  0.00     0.000 O
ATOM     13  HD  BGC B   1      16.650  10.693  17.5490  0.00  0.00     0.000 HD
ATOM     13   C  BGC B   1      14.361  10.307  20.5770  0.00  0.00     0.000 C
ATOM     14   O  BGC B   1      14.747   8.992  20.9650  0.00  0.00     0.000 O
ATOM     16  HD  BGC B   1      15.232   9.098  20.2560  0.00  0.00     0.000 HD
ENDROOT
BRANCH 1 16
ATOM     16  O4  BGC B   2      17.534  12.504  23.1740  0.00  0.00     0.000 O
BRANCH 16 20
ATOM     17  C1  BGC B   2      17.014  14.349  26.7610  0.00  0.00     0.000 C
ATOM     18  C2  BGC B   2      15.913  13.357  26.4180  0.00  0.00     0.000 C
ATOM     19  C3  BGC B   2      16.391  12.481  25.2630  0.00  0.00     0.000 C
ATOM     20  C4  BGC B   2      16.842  13.339  24.0980  0.00  0.00     0.000 C
ATOM     21  C5  BGC B   2      17.806  14.445  24.5290  0.00  0.00     0.000 C
ATOM     22  O5  BGC B   2      17.206  15.182  25.6020  0.00  0.00     0.000 O
ATOM     23   O  BGC B   2      15.627  12.524  27.5540  0.00  0.00     0.000 O
ATOM     25  HD  BGC B   2      16.071  12.401  26.8200  0.00  0.00     0.000 HD
ATOM     25   O  BGC B   2      15.347  11.605  24.8540  0.00  0.00     0.000 O
ATOM     27  HD  BGC B   2      15.791  11.483  24.1210  0.00  0.00     0.000 HD
ATOM     27   C  BGC B   2      18.119  15.430  23.4090  0.00  0.00     0.000 C
ATOM     28   O  BGC B   2      16.963  16.035  22.8530  0.00  0.00     0.000 O
ATOM     30  HD  BGC B   2      17.407  15.913  22.1190  0.00  0.00     0.000 HD
BRANCH 17 30
ATOM     30  O4  BGC B   3      16.494  15.212  27.7540  0.00  0.00     0.000 O
BRANCH 30 34
ATOM     31  C1  BGC B   3      17.758  17.411  30.9930  0.00  0.00     0.000 C
ATOM     32  C2  BGC B   3      18.197  17.967  29.6390  0.00  0.00     0.000 C
ATOM     33  C3  BGC B   3      17.357  17.324  28.5490  0.00  0.00     0.000 C
ATOM     34  C4  BGC B   3      17.457  15.802  28.6330  0.00  0.00     0.000 C
ATOM     35  C5  BGC B   3      17.147  15.329  30.0430  0.00  0.00     0.000 C
ATOM     36  O5  BGC B   3      17.996  16.012  30.9710  0.00  0.00     0.000 O
ATOM     37   O  BGC B   3      17.975  19.375  29.6080  0.00  0.00     0.000 O
ATOM     39  HD  BGC B   3      18.412  19.411  28.8610  0.00  0.00     0.000 HD
ATOM     39   O  BGC B   3      17.823  17.788  27.2900  0.00  0.00     0.000 O
ATOM     41  HD  BGC B   3      18.260  17.823  26.5430  0.00  0.00     0.000 HD
ATOM     41   C  BGC B   3      17.312  13.827  30.2430  0.00  0.00     0.000 C
ATOM     42   O  BGC B   3      18.624  13.435  29.9180  0.00  0.00     0.000 O
ATOM     44  HD  BGC B   3      19.061  13.471  29.1710  0.00  0.00     0.000 HD
BRANCH 31 44
ATOM     44  O4  BGC B   4      18.622  17.948  31.9620  0.00  0.00     0.000 O
BRANCH 44 48
ATOM     45  C1  BGC B   4      18.656  19.105  35.8950  0.00  0.00     0.000 C
ATOM     46  C2  BGC B   4      18.649  17.599  35.6730  0.00  0.00     0.000 C
ATOM     47  C3  BGC B   4      19.030  17.299  34.2430  0.00  0.00     0.000 C
ATOM     48  C4  BGC B   4      18.124  18.071  33.2790  0.00  0.00     0.000 C
ATOM     49  C5  BGC B   4      18.107  19.563  33.6330  0.00  0.00     0.000 C
ATOM     50  O5  BGC B   4      17.728  19.731  35.0070  0.00  0.00     0.000 O
ATOM     51   O  BGC B   4      19.596  16.966  36.5540  0.00  0.00     0.000 O
ATOM     53  HD  BGC B   4      20.057  16.946  35.8210  0.00  0.00     0.000 HD
ATOM     53   O  BGC B   4      18.893  15.889  34.0140  0.00  0.00     0.000 O
ATOM     55  HD  BGC B   4      19.353  15.870  33.2810  0.00  0.00     0.000 HD
ATOM     55   C  BGC B   4      17.144  20.393  32.8030  0.00  0.00     0.000 C
ATOM     56   O  BGC B   4      15.847  19.806  32.9240  0.00  0.00     0.000 O
ATOM     58  HD  BGC B   4      16.307  19.787  32.1910  0.00  0.00     0.000 HD
BRANCH 45 58
ATOM     58  O4  BGC B   5      18.045  19.315  37.1670  0.00  0.00     0.000 O
BRANCH 58 62
ATOM     59  C1  BGC B   5      18.597  21.348  40.7320  0.00  0.00     0.000 C
ATOM     60  C2  BGC B   5      18.090  22.188  39.5770  0.00  0.00     0.000 C
ATOM     61  C3  BGC B   5      17.536  21.301  38.4780  0.00  0.00     0.000 C
ATOM     62  C4  BGC B   5      18.589  20.286  38.0640  0.00  0.00     0.000 C
ATOM     63  C5  BGC B   5      19.119  19.526  39.2890  0.00  0.00     0.000 C
ATOM     64  O5  BGC B   5      19.611  20.467  40.2370  0.00  0.00     0.000 O
ATOM     65   O  BGC B   5      21.261  19.368  38.3500  0.00  0.00     0.000 O
ATOM     67  HD  BGC B   5      21.670  19.400  37.5870  0.00  0.00     0.000 HD
ATOM     67   O  BGC B   5      21.261  19.368  38.3500  0.00  0.00     0.000 O
ATOM     69  HD  BGC B   5      21.670  19.400  37.5870  0.00  0.00     0.000 HD
ENDBRANCH 58 62
ENDBRANCH 45 58
ENDBRANCH 44 48
ENDBRANCH 31 44
ENDBRANCH 30 34
ENDBRANCH 17 30
ENDBRANCH 16 20
ENDBRANCH 1 16
TORSDOF 8
ENDMDL
MODEL 64
REMARK VINA RESULT:      -0.1     78.569     81.151
ROOT
ATOM      1  C1  BGC B   1      54.297  62.075  43.3230  0.00  0.00     0.000 C
ATOM      2  C2  BGC B   1      55.251  63.082  42.6830  0.00  0.00     0.000 C
ATOM      3  C3  BGC B   1      54.496  64.338  42.2920  0.00  0.00     0.000 C
ATOM      4  C4  BGC B   1      53.275  63.994  41.4490  0.00  0.00     0.000 C
ATOM      5  C5  BGC B   1      52.420  63.000  42.2220  0.00  0.00     0.000 C
ATOM      6  O5  BGC B   1      53.218  61.821  42.4350  0.00  0.00     0.000 O
ATOM      7   O  BGC B   1      56.281  63.423  43.6250  0.00  0.00     0.000 O
ATOM      9  HD  BGC B   1      56.649  64.204  43.5540  0.00  0.00     0.000 HD
ATOM      9   O  BGC B   1      55.381  65.206  41.5780  0.00  0.00     0.000 O
ATOM     11  HD  BGC B   1      55.749  65.987  41.5070  0.00  0.00     0.000 HD
ATOM     11   O  BGC B   1      52.533  65.166  41.1880  0.00  0.00     0.000 O
ATOM     13  HD  BGC B   1      52.901  65.946  41.1170  0.00  0.00     0.000 HD
ATOM     13   C  BGC B   1      51.129  62.592  41.5270  0.00  0.00     0.000 C
ATOM     14   O  BGC B   1      51.358  62.073  40.2200  0.00  0.00     0.000 O
ATOM     16  HD  BGC B   1      51.725  62.854  40.1490  0.00  0.00     0.000 HD
ENDROOT
BRANCH 1 16
ATOM     16  O4  BGC B   2      55.012  60.844  43.4010  0.00  0.00     0.000 O
BRANCH 16 20
ATOM     17  C1  BGC B   2      55.407  57.534  45.7310  0.00  0.00     0.000 C
ATOM     18  C2  BGC B   2      54.136  57.545  44.8950  0.00  0.00     0.000 C
ATOM     19  C3  BGC B   2      54.272  58.619  43.8190  0.00  0.00     0.000 C
ATOM     20  C4  BGC B   2      54.620  59.955  44.4440  0.00  0.00     0.000 C
ATOM     21  C5  BGC B   2      55.789  59.853  45.4240  0.00  0.00     0.000 C
ATOM     22  O5  BGC B   2      55.500  58.819  46.3730  0.00  0.00     0.000 O
ATOM     23   O  BGC B   2      53.948  56.268  44.2640  0.00  0.00     0.000 O
ATOM     25  HD  BGC B   2      54.231  57.036  43.9830  0.00  0.00     0.000 HD
ATOM     25   O  BGC B   2      53.061  58.721  43.0800  0.00  0.00     0.000 O
ATOM     27  HD  BGC B   2      53.344  59.490  42.7990  0.00  0.00     0.000 HD
ATOM     27   C  BGC B   2      56.027  61.142  46.2010  0.00  0.00     0.000 C
ATOM     28   O  BGC B   2      54.885  61.589  46.9120  0.00  0.00     0.000 O
ATOM     30  HD  BGC B   2      55.168  62.358  46.6310  0.00  0.00     0.000 HD
BRANCH 17 30
ATOM     30  O4  BGC B   3      55.198  56.609  46.7820  0.00  0.00     0.000 O
BRANCH 30 34
ATOM     31  C1  BGC B   3      57.315  53.968  49.1200  0.00  0.00     0.000 C
ATOM     32  C2  BGC B   3      57.587  55.441  49.4220  0.00  0.00     0.000 C
ATOM     33  C3  BGC B   3      56.486  56.281  48.8000  0.00  0.00     0.000 C
ATOM     34  C4  BGC B   3      56.375  55.985  47.3050  0.00  0.00     0.000 C
ATOM     35  C5  BGC B   3      56.251  54.490  47.0700  0.00  0.00     0.000 C
ATOM     36  O5  BGC B   3      57.339  53.815  47.7090  0.00  0.00     0.000 O
ATOM     37   O  BGC B   3      57.571  55.648  50.8320  0.00  0.00     0.000 O
ATOM     39  HD  BGC B   3      57.872  56.450  50.7010  0.00  0.00     0.000 HD
ATOM     39   O  BGC B   3      56.787  57.651  49.0180  0.00  0.00     0.000 O
ATOM     41  HD  BGC B   3      57.088  58.453  48.8870  0.00  0.00     0.000 HD
ATOM     41   C  BGC B   3      56.227  54.094  45.5980  0.00  0.00     0.000 C
ATOM     42   O  BGC B   3      57.392  54.553  44.9530  0.00  0.00     0.000 O
ATOM     44  HD  BGC B   3      57.692  55.354  44.8210  0.00  0.00     0.000 HD
BRANCH 31 44
ATOM     44  O4  BGC B   4      58.403  53.233  49.6200  0.00  0.00     0.000 O
BRANCH 44 48
ATOM     45  C1  BGC B   4      59.286  49.572  51.2390  0.00  0.00     0.000 C
ATOM     46  C2  BGC B   4      59.037  49.562  49.7370  0.00  0.00     0.000 C
ATOM     47  C3  BGC B   4      59.116  50.972  49.2050  0.00  0.00     0.000 C
ATOM     48  C4  BGC B   4      58.167  51.888  49.9830  0.00  0.00     0.000 C
ATOM     49  C5  BGC B   4      58.414  51.764  51.4920  0.00  0.00     0.000 C
ATOM     50  O5  BGC B   4      58.310  50.388  51.8880  0.00  0.00     0.000 O
ATOM     51   O  BGC B   4      60.030  48.754  49.0780  0.00  0.00     0.000 O
ATOM     53  HD  BGC B   4      60.347  49.539  48.8940  0.00  0.00     0.000 HD
ATOM     53   O  BGC B   4      58.750  50.963  47.8170  0.00  0.00     0.000 O
ATOM     55  HD  BGC B   4      59.068  51.747  47.6330  0.00  0.00     0.000 HD
ATOM     55   C  BGC B   4      57.441  52.549  52.3540  0.00  0.00     0.000 C
ATOM     56   O  BGC B   4      56.118  52.141  52.0000  0.00  0.00     0.000 O
ATOM     58  HD  BGC B   4      56.436  52.925  51.8160  0.00  0.00     0.000 HD
BRANCH 45 58
ATOM     58  O4  BGC B   5      58.943  48.266  51.7010  0.00  0.00     0.000 O
BRANCH 58 62
ATOM     59  C1  BGC B   5      60.371  45.182  54.0670  0.00  0.00     0.000 C
ATOM     60  C2  BGC B   5      59.800  46.368  54.8190  0.00  0.00     0.000 C
ATOM     61  C3  BGC B   5      58.949  47.222  53.8990  0.00  0.00     0.000 C
ATOM     62  C4  BGC B   5      59.763  47.621  52.6790  0.00  0.00     0.000 C
ATOM     63  C5  BGC B   5      60.378  46.383  52.0100  0.00  0.00     0.000 C
ATOM     64  O5  BGC B   5      61.151  45.676  52.9740  0.00  0.00     0.000 O
ATOM     65   O  BGC B   5      62.287  47.589  51.3790  0.00  0.00     0.000 O
ATOM     67  HD  BGC B   5      62.562  48.399  51.2430  0.00  0.00     0.000 HD
ATOM     67   O  BGC B   5      62.287  47.589  51.3790  0.00  0.00     0.000 O
ATOM     69  HD  BGC B   5      62.562  48.399  51.2430  0.00  0.00     0.000 HD
ENDBRANCH 58 62
ENDBRANCH 45 58
ENDBRANCH 44 48
ENDBRANCH 31 44
ENDBRANCH 30 34
ENDBRANCH 17 30
ENDBRANCH 16 20
ENDBRANCH 1 16
TORSDOF 8
ENDMDL
MODEL 65
REMARK VINA RESULT:      -0.1     50.495     52.607
ROOT
ATOM      1  C1  BGC B   1       4.614  46.787  35.2380  0.00  0.00     0.000 C
ATOM      2  C2  BGC B   1       4.894  47.104  33.7700  0.00  0.00     0.000 C
ATOM      3  C3  BGC B   1       4.007  48.243  33.3050  0.00  0.00     0.000 C
ATOM      4  C4  BGC B   1       2.546  47.954  33.6260  0.00  0.00     0.000 C
ATOM      5  C5  BGC B   1       2.426  47.674  35.1170  0.00  0.00     0.000 C
ATOM      6  O5  BGC B   1       3.229  46.515  35.4030  0.00  0.00     0.000 O
ATOM      7   O  BGC B   1       6.271  47.486  33.6230  0.00  0.00     0.000 O
ATOM      9  HD  BGC B   1       6.474  48.019  32.9710  0.00  0.00     0.000 HD
ATOM      9   O  BGC B   1       4.193  48.429  31.8990  0.00  0.00     0.000 O
ATOM     11  HD  BGC B   1       4.396  48.962  31.2470  0.00  0.00     0.000 HD
ATOM     11   O  BGC B   1       1.755  49.070  33.2800  0.00  0.00     0.000 O
ATOM     13  HD  BGC B   1       1.958  49.604  32.6290  0.00  0.00     0.000 HD
ATOM     13   C  BGC B   1       1.008  47.414  35.6050  0.00  0.00     0.000 C
ATOM     14   O  BGC B   1       0.375  46.354  34.8940  0.00  0.00     0.000 O
ATOM     16  HD  BGC B   1       0.578  46.888  34.2420  0.00  0.00     0.000 HD
ENDROOT
BRANCH 1 16
ATOM     16  O4  BGC B   2       5.270  45.550  35.5110  0.00  0.00     0.000 O
BRANCH 16 20
ATOM     17  C1  BGC B   2       7.196  43.554  38.4850  0.00  0.00     0.000 C
ATOM     18  C2  BGC B   2       5.684  43.594  38.6540  0.00  0.00     0.000 C
ATOM     19  C3  BGC B   2       5.059  44.030  37.3310  0.00  0.00     0.000 C
ATOM     20  C4  BGC B   2       5.669  45.335  36.8620  0.00  0.00     0.000 C
ATOM     21  C5  BGC B   2       7.197  45.308  36.8910  0.00  0.00     0.000 C
ATOM     22  O5  BGC B   2       7.622  44.899  38.1970  0.00  0.00     0.000 O
ATOM     23   O  BGC B   2       5.191  42.289  39.0000  0.00  0.00     0.000 O
ATOM     25  HD  BGC B   2       5.198  42.749  38.2660  0.00  0.00     0.000 HD
ATOM     25   O  BGC B   2       3.652  44.170  37.4830  0.00  0.00     0.000 O
ATOM     27  HD  BGC B   2       3.659  44.630  36.7490  0.00  0.00     0.000 HD
ATOM     27   C  BGC B   2       7.821  46.669  36.6050  0.00  0.00     0.000 C
ATOM     28   O  BGC B   2       7.375  47.688  37.4850  0.00  0.00     0.000 O
ATOM     30  HD  BGC B   2       7.382  48.148  36.7510  0.00  0.00     0.000 HD
BRANCH 17 30
ATOM     30  O4  BGC B   3       7.742  43.258  39.7560  0.00  0.00     0.000 O
BRANCH 30 34
ATOM     31  C1  BGC B   3      10.972  41.330  41.4220  0.00  0.00     0.000 C
ATOM     32  C2  BGC B   3      11.309  42.652  40.7330  0.00  0.00     0.000 C
ATOM     33  C3  BGC B   3      10.026  43.437  40.5250  0.00  0.00     0.000 C
ATOM     34  C4  BGC B   3       9.012  42.597  39.7490  0.00  0.00     0.000 C
ATOM     35  C5  BGC B   3       8.833  41.242  40.4100  0.00  0.00     0.000 C
ATOM     36  O5  BGC B   3      10.110  40.610  40.5550  0.00  0.00     0.000 O
ATOM     37   O  BGC B   3      12.175  43.416  41.5680  0.00  0.00     0.000 O
ATOM     39  HD  BGC B   3      12.291  43.970  40.9130  0.00  0.00     0.000 HD
ATOM     39   O  BGC B   3      10.337  44.627  39.8160  0.00  0.00     0.000 O
ATOM     41  HD  BGC B   3      10.453  45.181  39.1600  0.00  0.00     0.000 HD
ATOM     41   C  BGC B   3       7.905  40.300  39.6510  0.00  0.00     0.000 C
ATOM     42   O  BGC B   3       8.382  40.100  38.3410  0.00  0.00     0.000 O
ATOM     44  HD  BGC B   3       8.497  40.654  37.6860  0.00  0.00     0.000 HD
BRANCH 31 44
ATOM     44  O4  BGC B   4      12.163  40.590  41.5050  0.00  0.00     0.000 O
BRANCH 44 48
ATOM     45  C1  BGC B   4      14.023  37.819  43.8870  0.00  0.00     0.000 C
ATOM     46  C2  BGC B   4      12.876  37.273  43.0490  0.00  0.00     0.000 C
ATOM     47  C3  BGC B   4      12.540  38.255  41.9530  0.00  0.00     0.000 C
ATOM     48  C4  BGC B   4      12.267  39.640  42.5470  0.00  0.00     0.000 C
ATOM     49  C5  BGC B   4      13.422  40.074  43.4580  0.00  0.00     0.000 C
ATOM     50  O5  BGC B   4      13.650  39.073  44.4610  0.00  0.00     0.000 O
ATOM     51   O  BGC B   4      13.254  36.017  42.4540  0.00  0.00     0.000 O
ATOM     53  HD  BGC B   4      13.350  36.530  41.7630  0.00  0.00     0.000 HD
ATOM     53   O  BGC B   4      11.377  37.789  41.2550  0.00  0.00     0.000 O
ATOM     55  HD  BGC B   4      11.472  38.302  40.5640  0.00  0.00     0.000 HD
ATOM     55   C  BGC B   4      13.189  41.386  44.1850  0.00  0.00     0.000 C
ATOM     56   O  BGC B   4      11.961  41.272  44.9060  0.00  0.00     0.000 O
ATOM     58  HD  BGC B   4      12.057  41.785  44.2150  0.00  0.00     0.000 HD
BRANCH 45 58
ATOM     58  O4  BGC B   5      14.105  36.975  45.0350  0.00  0.00     0.000 O
BRANCH 58 62
ATOM     59  C1  BGC B   5      16.838  34.823  47.2810  0.00  0.00     0.000 C
ATOM     60  C2  BGC B   5      16.815  36.315  47.5420  0.00  0.00     0.000 C
ATOM     61  C3  BGC B   5      15.537  36.930  47.0020  0.00  0.00     0.000 C
ATOM     62  C4  BGC B   5      15.385  36.576  45.5310  0.00  0.00     0.000 C
ATOM     63  C5  BGC B   5      15.497  35.058  45.3260  0.00  0.00     0.000 C
ATOM     64  O5  BGC B   5      16.735  34.611  45.8700  0.00  0.00     0.000 O
ATOM     65   O  BGC B   5      16.530  35.347  43.2410  0.00  0.00     0.000 O
ATOM     67  HD  BGC B   5      16.621  35.929  42.6060  0.00  0.00     0.000 HD
ATOM     67   O  BGC B   5      16.530  35.347  43.2410  0.00  0.00     0.000 O
ATOM     69  HD  BGC B   5      16.621  35.929  42.6060  0.00  0.00     0.000 HD
ENDBRANCH 58 62
ENDBRANCH 45 58
ENDBRANCH 44 48
ENDBRANCH 31 44
ENDBRANCH 30 34
ENDBRANCH 17 30
ENDBRANCH 16 20
ENDBRANCH 1 16
TORSDOF 8
ENDMDL
MODEL 66
REMARK VINA RESULT:      -0.1     59.213     62.548
ROOT
ATOM      1  C1  BGC B   1      20.010  32.955  63.1200  0.00  0.00     0.000 C
ATOM      2  C2  BGC B   1      20.837  32.372  64.2650  0.00  0.00     0.000 C
ATOM      3  C3  BGC B   1      19.944  31.583  65.2020  0.00  0.00     0.000 C
ATOM      4  C4  BGC B   1      18.750  32.421  65.6430  0.00  0.00     0.000 C
ATOM      5  C5  BGC B   1      18.023  32.914  64.4010  0.00  0.00     0.000 C
ATOM      6  O5  BGC B   1      18.947  33.730  63.6570  0.00  0.00     0.000 O
ATOM      7   O  BGC B   1      21.844  31.501  63.7250  0.00  0.00     0.000 O
ATOM      9  HD  BGC B   1      22.124  30.851  64.2240  0.00  0.00     0.000 HD
ATOM      9   O  BGC B   1      20.716  31.163  66.3310  0.00  0.00     0.000 O
ATOM     11  HD  BGC B   1      20.996  30.513  66.8310  0.00  0.00     0.000 HD
ATOM     11   O  BGC B   1      17.882  31.633  66.4270  0.00  0.00     0.000 O
ATOM     13  HD  BGC B   1      18.162  30.983  66.9270  0.00  0.00     0.000 HD
ATOM     13   C  BGC B   1      16.770  33.732  64.6770  0.00  0.00     0.000 C
ATOM     14   O  BGC B   1      17.026  34.848  65.5240  0.00  0.00     0.000 O
ATOM     16  HD  BGC B   1      17.306  34.198  66.0240  0.00  0.00     0.000 HD
ENDROOT
BRANCH 1 16
ATOM     16  O4  BGC B   2      20.855  33.894  62.4560  0.00  0.00     0.000 O
BRANCH 16 20
ATOM     17  C1  BGC B   2      21.658  35.405  58.7670  0.00  0.00     0.000 C
ATOM     18  C2  BGC B   2      20.362  35.925  59.3720  0.00  0.00     0.000 C
ATOM     19  C3  BGC B   2      20.354  35.589  60.8620  0.00  0.00     0.000 C
ATOM     20  C4  BGC B   2      20.590  34.108  61.0720  0.00  0.00     0.000 C
ATOM     21  C5  BGC B   2      21.798  33.593  60.2890  0.00  0.00     0.000 C
ATOM     22  O5  BGC B   2      21.647  33.973  58.9160  0.00  0.00     0.000 O
ATOM     23   O  BGC B   2      20.279  37.351  59.2110  0.00  0.00     0.000 O
ATOM     25  HD  BGC B   2      20.475  36.836  59.8800  0.00  0.00     0.000 HD
ATOM     25   O  BGC B   2      19.112  35.977  61.4380  0.00  0.00     0.000 O
ATOM     27  HD  BGC B   2      19.308  35.463  62.1070  0.00  0.00     0.000 HD
ATOM     27   C  BGC B   2      21.936  32.077  60.3380  0.00  0.00     0.000 C
ATOM     28   O  BGC B   2      20.782  31.392  59.8810  0.00  0.00     0.000 O
ATOM     30  HD  BGC B   2      20.977  30.877  60.5500  0.00  0.00     0.000 HD
BRANCH 17 30
ATOM     30  O4  BGC B   3      21.580  35.633  57.3730  0.00  0.00     0.000 O
BRANCH 30 34
ATOM     31  C1  BGC B   3      24.032  36.469  54.1770  0.00  0.00     0.000 C
ATOM     32  C2  BGC B   3      24.151  35.043  54.7120  0.00  0.00     0.000 C
ATOM     33  C3  BGC B   3      22.949  34.746  55.5910  0.00  0.00     0.000 C
ATOM     34  C4  BGC B   3      22.831  35.794  56.6970  0.00  0.00     0.000 C
ATOM     35  C5  BGC B   3      22.862  37.192  56.1050  0.00  0.00     0.000 C
ATOM     36  O5  BGC B   3      24.034  37.341  55.2970  0.00  0.00     0.000 O
ATOM     37   O  BGC B   3      24.151  34.124  53.6220  0.00  0.00     0.000 O
ATOM     39  HD  BGC B   3      24.360  33.492  54.1760  0.00  0.00     0.000 HD
ATOM     39   O  BGC B   3      23.107  33.448  56.1460  0.00  0.00     0.000 O
ATOM     41  HD  BGC B   3      23.315  32.816  56.7000  0.00  0.00     0.000 HD
ATOM     41   C  BGC B   3      22.842  38.306  57.1460  0.00  0.00     0.000 C
ATOM     42   O  BGC B   3      23.932  38.168  58.0270  0.00  0.00     0.000 O
ATOM     44  HD  BGC B   3      24.141  37.536  58.5810  0.00  0.00     0.000 HD
BRANCH 31 44
ATOM     44  O4  BGC B   4      25.206  36.742  53.4560  0.00  0.00     0.000 O
BRANCH 44 48
ATOM     45  C1  BGC B   4      26.523  38.915  50.2390  0.00  0.00     0.000 C
ATOM     46  C2  BGC B   4      26.235  39.736  51.4880  0.00  0.00     0.000 C
ATOM     47  C3  BGC B   4      26.147  38.818  52.6830  0.00  0.00     0.000 C
ATOM     48  C4  BGC B   4      25.126  37.706  52.4260  0.00  0.00     0.000 C
ATOM     49  C5  BGC B   4      25.426  36.996  51.1000  0.00  0.00     0.000 C
ATOM     50  O5  BGC B   4      25.482  37.958  50.0370  0.00  0.00     0.000 O
ATOM     51   O  BGC B   4      27.292  40.690  51.7050  0.00  0.00     0.000 O
ATOM     53  HD  BGC B   4      27.517  40.099  52.2970  0.00  0.00     0.000 HD
ATOM     53   O  BGC B   4      25.748  39.587  53.8270  0.00  0.00     0.000 O
ATOM     55  HD  BGC B   4      25.973  38.996  54.4190  0.00  0.00     0.000 HD
ATOM     55   C  BGC B   4      24.398  35.952  50.7010  0.00  0.00     0.000 C
ATOM     56   O  BGC B   4      23.118  36.586  50.6820  0.00  0.00     0.000 O
ATOM     58  HD  BGC B   4      23.344  35.996  51.2740  0.00  0.00     0.000 HD
BRANCH 45 58
ATOM     58  O4  BGC B   5      26.336  39.802  49.1370  0.00  0.00     0.000 O
BRANCH 58 62
ATOM     59  C1  BGC B   5      28.171  41.066  45.6460  0.00  0.00     0.000 C
ATOM     60  C2  BGC B   5      27.479  39.720  45.5660  0.00  0.00     0.000 C
ATOM     61  C3  BGC B   5      26.512  39.549  46.7230  0.00  0.00     0.000 C
ATOM     62  C4  BGC B   5      27.247  39.768  48.0360  0.00  0.00     0.000 C
ATOM     63  C5  BGC B   5      27.991  41.111  48.0210  0.00  0.00     0.000 C
ATOM     64  O5  BGC B   5      28.863  41.142  46.8960  0.00  0.00     0.000 O
ATOM     65   O  BGC B   5      29.729  40.240  49.3320  0.00  0.00     0.000 O
ATOM     67  HD  BGC B   5      29.902  39.597  49.8860  0.00  0.00     0.000 HD
ATOM     67   O  BGC B   5      29.729  40.240  49.3320  0.00  0.00     0.000 O
ATOM     69  HD  BGC B   5      29.902  39.597  49.8860  0.00  0.00     0.000 HD
ENDBRANCH 58 62
ENDBRANCH 45 58
ENDBRANCH 44 48
ENDBRANCH 31 44
ENDBRANCH 30 34
ENDBRANCH 17 30
ENDBRANCH 16 20
ENDBRANCH 1 16
TORSDOF 8
ENDMDL
MODEL 67
REMARK VINA RESULT:      -0.1     60.134     63.523
ROOT
ATOM      1  C1  BGC B   1      19.900  34.087  62.4160  0.00  0.00     0.000 C
ATOM      2  C2  BGC B   1      20.517  33.401  63.6330  0.00  0.00     0.000 C
ATOM      3  C3  BGC B   1      19.468  32.576  64.3540  0.00  0.00     0.000 C
ATOM      4  C4  BGC B   1      18.234  33.418  64.6560  0.00  0.00     0.000 C
ATOM      5  C5  BGC B   1      17.730  34.018  63.3520  0.00  0.00     0.000 C
ATOM      6  O5  BGC B   1      18.778  34.854  62.8290  0.00  0.00     0.000 O
ATOM      7   O  BGC B   1      21.582  32.538  63.2010  0.00  0.00     0.000 O
ATOM      9  HD  BGC B   1      21.765  31.848  63.6900  0.00  0.00     0.000 HD
ATOM      9   O  BGC B   1      20.037  32.055  65.5590  0.00  0.00     0.000 O
ATOM     11  HD  BGC B   1      20.219  31.364  66.0480  0.00  0.00     0.000 HD
ATOM     11   O  BGC B   1      17.235  32.604  65.2300  0.00  0.00     0.000 O
ATOM     13  HD  BGC B   1      17.417  31.913  65.7190  0.00  0.00     0.000 HD
ATOM     13   C  BGC B   1      16.464  34.853  63.4810  0.00  0.00     0.000 C
ATOM     14   O  BGC B   1      16.599  35.899  64.4390  0.00  0.00     0.000 O
ATOM     16  HD  BGC B   1      16.781  35.208  64.9280  0.00  0.00     0.000 HD
ENDROOT
BRANCH 1 16
ATOM     16  O4  BGC B   2      20.860  35.043  61.9680  0.00  0.00     0.000 O
BRANCH 16 20
ATOM     17  C1  BGC B   2      22.284  36.781  58.5790  0.00  0.00     0.000 C
ATOM     18  C2  BGC B   2      20.916  37.297  59.0030  0.00  0.00     0.000 C
ATOM     19  C3  BGC B   2      20.658  36.859  60.4430  0.00  0.00     0.000 C
ATOM     20  C4  BGC B   2      20.828  35.360  60.5790  0.00  0.00     0.000 C
ATOM     21  C5  BGC B   2      22.138  34.864  59.9660  0.00  0.00     0.000 C
ATOM     22  O5  BGC B   2      22.221  35.343  58.6180  0.00  0.00     0.000 O
ATOM     23   O  BGC B   2      20.887  38.733  58.9350  0.00  0.00     0.000 O
ATOM     25  HD  BGC B   2      20.961  38.167  59.5870  0.00  0.00     0.000 HD
ATOM     25   O  BGC B   2      19.346  37.244  60.8380  0.00  0.00     0.000 O
ATOM     27  HD  BGC B   2      19.420  36.679  61.4900  0.00  0.00     0.000 HD
ATOM     27   C  BGC B   2      22.238  33.345  59.9260  0.00  0.00     0.000 C
ATOM     28   O  BGC B   2      21.161  32.729  59.2390  0.00  0.00     0.000 O
ATOM     30  HD  BGC B   2      21.235  32.164  59.8910  0.00  0.00     0.000 HD
BRANCH 17 30
ATOM     30  O4  BGC B   3      22.438  37.108  57.2110  0.00  0.00     0.000 O
BRANCH 30 34
ATOM     31  C1  BGC B   3      25.395  38.088  54.5240  0.00  0.00     0.000 C
ATOM     32  C2  BGC B   3      25.398  36.625  54.9650  0.00  0.00     0.000 C
ATOM     33  C3  BGC B   3      24.063  36.304  55.6140  0.00  0.00     0.000 C
ATOM     34  C4  BGC B   3      23.786  37.276  56.7600  0.00  0.00     0.000 C
ATOM     35  C5  BGC B   3      23.940  38.711  56.2850  0.00  0.00     0.000 C
ATOM     36  O5  BGC B   3      25.231  38.879  55.6900  0.00  0.00     0.000 O
ATOM     37   O  BGC B   3      25.559  35.784  53.8240  0.00  0.00     0.000 O
ATOM     39  HD  BGC B   3      25.662  35.109  54.3570  0.00  0.00     0.000 HD
ATOM     39   O  BGC B   3      24.104  34.967  56.0890  0.00  0.00     0.000 O
ATOM     41  HD  BGC B   3      24.207  34.292  56.6220  0.00  0.00     0.000 HD
ATOM     41   C  BGC B   3      23.771  39.750  57.3880  0.00  0.00     0.000 C
ATOM     42   O  BGC B   3      24.700  39.517  58.4210  0.00  0.00     0.000 O
ATOM     44  HD  BGC B   3      24.803  38.842  58.9530  0.00  0.00     0.000 HD
BRANCH 31 44
ATOM     44  O4  BGC B   4      26.676  38.374  54.0240  0.00  0.00     0.000 O
BRANCH 44 48
ATOM     45  C1  BGC B   4      28.543  40.723  51.2310  0.00  0.00     0.000 C
ATOM     46  C2  BGC B   4      28.071  41.463  52.4740  0.00  0.00     0.000 C
ATOM     47  C3  BGC B   4      27.771  40.469  53.5680  0.00  0.00     0.000 C
ATOM     48  C4  BGC B   4      26.785  39.409  53.0680  0.00  0.00     0.000 C
ATOM     49  C5  BGC B   4      27.284  38.783  51.7600  0.00  0.00     0.000 C
ATOM     50  O5  BGC B   4      27.531  39.814  50.7930  0.00  0.00     0.000 O
ATOM     51   O  BGC B   4      29.095  42.368  52.9280  0.00  0.00     0.000 O
ATOM     53  HD  BGC B   4      29.210  41.731  53.5040  0.00  0.00     0.000 HD
ATOM     53   O  BGC B   4      27.204  41.168  54.6860  0.00  0.00     0.000 O
ATOM     55  HD  BGC B   4      27.319  40.531  55.2610  0.00  0.00     0.000 HD
ATOM     55   C  BGC B   4      26.315  37.802  51.1240  0.00  0.00     0.000 C
ATOM     56   O  BGC B   4      25.068  38.475  50.9450  0.00  0.00     0.000 O
ATOM     58  HD  BGC B   4      25.182  37.838  51.5200  0.00  0.00     0.000 HD
BRANCH 45 58
ATOM     58  O4  BGC B   5      28.555  41.690  50.1810  0.00  0.00     0.000 O
BRANCH 58 62
ATOM     59  C1  BGC B   5      30.960  43.136  47.1350  0.00  0.00     0.000 C
ATOM     60  C2  BGC B   5      30.265  41.821  46.8460  0.00  0.00     0.000 C
ATOM     61  C3  BGC B   5      29.119  41.599  47.8150  0.00  0.00     0.000 C
ATOM     62  C4  BGC B   5      29.633  41.704  49.2420  0.00  0.00     0.000 C
ATOM     63  C5  BGC B   5      30.395  43.022  49.4470  0.00  0.00     0.000 C
ATOM     64  O5  BGC B   5      31.440  43.104  48.4830  0.00  0.00     0.000 O
ATOM     65   O  BGC B   5      31.879  42.008  50.9530  0.00  0.00     0.000 O
ATOM     67  HD  BGC B   5      31.946  41.324  51.4790  0.00  0.00     0.000 HD
ATOM     67   O  BGC B   5      31.879  42.008  50.9530  0.00  0.00     0.000 O
ATOM     69  HD  BGC B   5      31.946  41.324  51.4790  0.00  0.00     0.000 HD
ENDBRANCH 58 62
ENDBRANCH 45 58
ENDBRANCH 44 48
ENDBRANCH 31 44
ENDBRANCH 30 34
ENDBRANCH 17 30
ENDBRANCH 16 20
ENDBRANCH 1 16
TORSDOF 8
ENDMDL
MODEL 68
REMARK VINA RESULT:      -0.1     69.973     76.031
ROOT
ATOM      1  C1  BGC B   1      40.761  61.899  35.8930  0.00  0.00     0.000 C
ATOM      2  C2  BGC B   1      41.071  63.156  35.0820  0.00  0.00     0.000 C
ATOM      3  C3  BGC B   1      40.940  62.864  33.5990  0.00  0.00     0.000 C
ATOM      4  C4  BGC B   1      41.764  61.641  33.2150  0.00  0.00     0.000 C
ATOM      5  C5  BGC B   1      41.333  60.476  34.0930  0.00  0.00     0.000 C
ATOM      6  O5  BGC B   1      41.605  60.841  35.4590  0.00  0.00     0.000 O
ATOM      7   O  BGC B   1      40.144  64.193  35.4430  0.00  0.00     0.000 O
ATOM      9  HD  BGC B   1      39.960  64.795  34.8480  0.00  0.00     0.000 HD
ATOM      9   O  BGC B   1      41.363  64.015  32.8620  0.00  0.00     0.000 O
ATOM     11  HD  BGC B   1      41.180  64.617  32.2670  0.00  0.00     0.000 HD
ATOM     11   O  BGC B   1      41.543  61.328  31.8570  0.00  0.00     0.000 O
ATOM     13  HD  BGC B   1      41.359  61.930  31.2620  0.00  0.00     0.000 HD
ATOM     13   C  BGC B   1      42.035  59.158  33.7960  0.00  0.00     0.000 C
ATOM     14   O  BGC B   1      43.453  59.274  33.8610  0.00  0.00     0.000 O
ATOM     16  HD  BGC B   1      43.270  59.876  33.2650  0.00  0.00     0.000 HD
ENDROOT
BRANCH 1 16
ATOM     16  O4  BGC B   2      41.172  62.177  37.2300  0.00  0.00     0.000 O
BRANCH 16 20
ATOM     17  C1  BGC B   2      40.186  61.382  41.0940  0.00  0.00     0.000 C
ATOM     18  C2  BGC B   2      40.866  60.220  40.3850  0.00  0.00     0.000 C
ATOM     19  C3  BGC B   2      41.505  60.743  39.1010  0.00  0.00     0.000 C
ATOM     20  C4  BGC B   2      40.480  61.473  38.2580  0.00  0.00     0.000 C
ATOM     21  C5  BGC B   2      39.689  62.503  39.0660  0.00  0.00     0.000 C
ATOM     22  O5  BGC B   2      39.143  61.855  40.2220  0.00  0.00     0.000 O
ATOM     23   O  BGC B   2      41.888  59.658  41.2250  0.00  0.00     0.000 O
ATOM     25  HD  BGC B   2      41.903  60.186  40.5380  0.00  0.00     0.000 HD
ATOM     25   O  BGC B   2      42.068  59.662  38.3650  0.00  0.00     0.000 O
ATOM     27  HD  BGC B   2      42.082  60.190  37.6790  0.00  0.00     0.000 HD
ATOM     27   C  BGC B   2      38.531  63.109  38.2840  0.00  0.00     0.000 C
ATOM     28   O  BGC B   2      37.624  62.142  37.7820  0.00  0.00     0.000 O
ATOM     30  HD  BGC B   2      37.638  62.669  37.0950  0.00  0.00     0.000 HD
BRANCH 17 30
ATOM     30  O4  BGC B   3      39.513  60.840  42.2150  0.00  0.00     0.000 O
BRANCH 30 34
ATOM     31  C1  BGC B   3      38.411  61.889  46.0370  0.00  0.00     0.000 C
ATOM     32  C2  BGC B   3      37.630  62.602  44.9340  0.00  0.00     0.000 C
ATOM     33  C3  BGC B   3      37.837  61.858  43.6260  0.00  0.00     0.000 C
ATOM     34  C4  BGC B   3      39.328  61.730  43.3210  0.00  0.00     0.000 C
ATOM     35  C5  BGC B   3      40.064  61.146  44.5140  0.00  0.00     0.000 C
ATOM     36  O5  BGC B   3      39.782  61.930  45.6770  0.00  0.00     0.000 O
ATOM     37   O  BGC B   3      36.240  62.586  45.2480  0.00  0.00     0.000 O
ATOM     39  HD  BGC B   3      36.102  63.133  44.5900  0.00  0.00     0.000 HD
ATOM     39   O  BGC B   3      37.172  62.570  42.5930  0.00  0.00     0.000 O
ATOM     41  HD  BGC B   3      37.035  63.116  41.9360  0.00  0.00     0.000 HD
ATOM     41   C  BGC B   3      41.576  61.067  44.3310  0.00  0.00     0.000 C
ATOM     42   O  BGC B   3      42.100  62.346  44.0640  0.00  0.00     0.000 O
ATOM     44  HD  BGC B   3      41.962  62.893  43.4070  0.00  0.00     0.000 HD
BRANCH 31 44
ATOM     44  O4  BGC B   4      38.280  62.661  47.2030  0.00  0.00     0.000 O
BRANCH 44 48
ATOM     45  C1  BGC B   4      38.132  62.254  51.2800  0.00  0.00     0.000 C
ATOM     46  C2  BGC B   4      39.516  62.083  50.6720  0.00  0.00     0.000 C
ATOM     47  C3  BGC B   4      39.520  62.632  49.2660  0.00  0.00     0.000 C
ATOM     48  C4  BGC B   4      38.399  61.991  48.4420  0.00  0.00     0.000 C
ATOM     49  C5  BGC B   4      37.055  62.117  49.1700  0.00  0.00     0.000 C
ATOM     50  O5  BGC B   4      37.165  61.561  50.4890  0.00  0.00     0.000 O
ATOM     51   O  BGC B   4      40.491  62.795  51.4570  0.00  0.00     0.000 O
ATOM     53  HD  BGC B   4      40.409  63.354  50.8010  0.00  0.00     0.000 HD
ATOM     53   O  BGC B   4      40.790  62.347  48.6620  0.00  0.00     0.000 O
ATOM     55  HD  BGC B   4      40.707  62.906  48.0060  0.00  0.00     0.000 HD
ATOM     55   C  BGC B   4      35.901  61.407  48.4840  0.00  0.00     0.000 C
ATOM     56   O  BGC B   4      36.277  60.041  48.3010  0.00  0.00     0.000 O
ATOM     58  HD  BGC B   4      36.195  60.600  47.6450  0.00  0.00     0.000 HD
BRANCH 45 58
ATOM     58  O4  BGC B   5      38.137  61.492  52.4860  0.00  0.00     0.000 O
BRANCH 58 62
ATOM     59  C1  BGC B   5      37.152  61.768  56.4990  0.00  0.00     0.000 C
ATOM     60  C2  BGC B   5      35.986  61.547  55.5570  0.00  0.00     0.000 C
ATOM     61  C3  BGC B   5      36.476  61.052  54.2090  0.00  0.00     0.000 C
ATOM     62  C4  BGC B   5      37.515  62.017  53.6610  0.00  0.00     0.000 C
ATOM     63  C5  BGC B   5      38.626  62.260  54.6930  0.00  0.00     0.000 C
ATOM     64  O5  BGC B   5      38.036  62.722  55.9040  0.00  0.00     0.000 O
ATOM     65   O  BGC B   5      38.892  64.479  53.9860  0.00  0.00     0.000 O
ATOM     67  HD  BGC B   5      38.741  64.996  53.3080  0.00  0.00     0.000 HD
ATOM     67   O  BGC B   5      38.892  64.479  53.9860  0.00  0.00     0.000 O
ATOM     69  HD  BGC B   5      38.741  64.996  53.3080  0.00  0.00     0.000 HD
ENDBRANCH 58 62
ENDBRANCH 45 58
ENDBRANCH 44 48
ENDBRANCH 31 44
ENDBRANCH 30 34
ENDBRANCH 17 30
ENDBRANCH 16 20
ENDBRANCH 1 16
TORSDOF 8
ENDMDL
MODEL 69
REMARK VINA RESULT:      -0.1     61.433     66.022
ROOT
ATOM      1  C1  BGC B   1      37.149  25.285  64.9040  0.00  0.00     0.000 C
ATOM      2  C2  BGC B   1      37.234  25.505  66.4140  0.00  0.00     0.000 C
ATOM      3  C3  BGC B   1      36.152  26.469  66.8610  0.00  0.00     0.000 C
ATOM      4  C4  BGC B   1      36.189  27.745  66.0300  0.00  0.00     0.000 C
ATOM      5  C5  BGC B   1      36.080  27.365  64.5600  0.00  0.00     0.000 C
ATOM      6  O5  BGC B   1      37.216  26.541  64.2430  0.00  0.00     0.000 O
ATOM      7   O  BGC B   1      37.055  24.248  67.0860  0.00  0.00     0.000 O
ATOM      9  HD  BGC B   1      36.724  24.262  67.8860  0.00  0.00     0.000 HD
ATOM      9   O  BGC B   1      36.337  26.760  68.2500  0.00  0.00     0.000 O
ATOM     11  HD  BGC B   1      36.005  26.774  69.0490  0.00  0.00     0.000 HD
ATOM     11   O  BGC B   1      35.109  28.578  66.3920  0.00  0.00     0.000 O
ATOM     13  HD  BGC B   1      34.778  28.593  67.1920  0.00  0.00     0.000 HD
ATOM     13   C  BGC B   1      36.053  28.543  63.5960  0.00  0.00     0.000 C
ATOM     14   O  BGC B   1      37.177  29.403  63.7600  0.00  0.00     0.000 O
ATOM     16  HD  BGC B   1      36.845  29.418  64.5600  0.00  0.00     0.000 HD
ENDROOT
BRANCH 1 16
ATOM     16  O4  BGC B   2      38.347  24.605  64.5340  0.00  0.00     0.000 O
BRANCH 16 20
ATOM     17  C1  BGC B   2      39.756  21.834  61.9110  0.00  0.00     0.000 C
ATOM     18  C2  BGC B   2      39.498  23.196  61.2820  0.00  0.00     0.000 C
ATOM     19  C3  BGC B   2      39.333  24.223  62.4000  0.00  0.00     0.000 C
ATOM     20  C4  BGC B   2      38.266  23.775  63.3770  0.00  0.00     0.000 C
ATOM     21  C5  BGC B   2      38.464  22.330  63.8360  0.00  0.00     0.000 C
ATOM     22  O5  BGC B   2      38.584  21.496  62.6770  0.00  0.00     0.000 O
ATOM     23   O  BGC B   2      40.610  23.576  60.4550  0.00  0.00     0.000 O
ATOM     25  HD  BGC B   2      40.350  23.807  61.2480  0.00  0.00     0.000 HD
ATOM     25   O  BGC B   2      38.996  25.490  61.8480  0.00  0.00     0.000 O
ATOM     27  HD  BGC B   2      38.736  25.721  62.6410  0.00  0.00     0.000 HD
ATOM     27   C  BGC B   2      37.299  21.805  64.6660  0.00  0.00     0.000 C
ATOM     28   O  BGC B   2      36.049  21.897  64.0030  0.00  0.00     0.000 O
ATOM     30  HD  BGC B   2      35.789  22.129  64.7960  0.00  0.00     0.000 HD
BRANCH 17 30
ATOM     30  O4  BGC B   3      39.790  20.895  60.8530  0.00  0.00     0.000 O
BRANCH 30 34
ATOM     31  C1  BGC B   3      41.603  17.338  59.8600  0.00  0.00     0.000 C
ATOM     32  C2  BGC B   3      40.538  17.225  60.9490  0.00  0.00     0.000 C
ATOM     33  C3  BGC B   3      39.687  18.483  60.9380  0.00  0.00     0.000 C
ATOM     34  C4  BGC B   3      40.572  19.720  61.0900  0.00  0.00     0.000 C
ATOM     35  C5  BGC B   3      41.694  19.696  60.0670  0.00  0.00     0.000 C
ATOM     36  O5  BGC B   3      42.411  18.461  60.1760  0.00  0.00     0.000 O
ATOM     37   O  BGC B   3      39.695  16.107  60.6750  0.00  0.00     0.000 O
ATOM     39  HD  BGC B   3      39.335  16.208  61.4570  0.00  0.00     0.000 HD
ATOM     39   O  BGC B   3      38.751  18.402  62.0020  0.00  0.00     0.000 O
ATOM     41  HD  BGC B   3      38.391  18.503  62.7830  0.00  0.00     0.000 HD
ATOM     41   C  BGC B   3      42.682  20.849  60.2050  0.00  0.00     0.000 C
ATOM     42   O  BGC B   3      43.250  20.851  61.4930  0.00  0.00     0.000 O
ATOM     44  HD  BGC B   3      42.890  20.951  62.2750  0.00  0.00     0.000 HD
BRANCH 31 44
ATOM     44  O4  BGC B   4      42.431  16.209  59.9680  0.00  0.00     0.000 O
BRANCH 44 48
ATOM     45  C1  BGC B   4      44.721  13.716  57.6550  0.00  0.00     0.000 C
ATOM     46  C2  BGC B   4      45.328  15.089  57.9080  0.00  0.00     0.000 C
ATOM     47  C3  BGC B   4      44.612  15.752  59.0590  0.00  0.00     0.000 C
ATOM     48  C4  BGC B   4      43.103  15.781  58.8010  0.00  0.00     0.000 C
ATOM     49  C5  BGC B   4      42.588  14.379  58.4540  0.00  0.00     0.000 C
ATOM     50  O5  BGC B   4      43.332  13.849  57.3480  0.00  0.00     0.000 O
ATOM     51   O  BGC B   4      46.724  14.959  58.2350  0.00  0.00     0.000 O
ATOM     53  HD  BGC B   4      46.409  15.090  59.0300  0.00  0.00     0.000 HD
ATOM     53   O  BGC B   4      45.106  17.092  59.2000  0.00  0.00     0.000 O
ATOM     55  HD  BGC B   4      44.790  17.223  59.9960  0.00  0.00     0.000 HD
ATOM     55   C  BGC B   4      41.120  14.327  58.0680  0.00  0.00     0.000 C
ATOM     56   O  BGC B   4      40.921  15.243  56.9900  0.00  0.00     0.000 O
ATOM     58  HD  BGC B   4      40.606  15.375  57.7860  0.00  0.00     0.000 HD
BRANCH 45 58
ATOM     58  O4  BGC B   5      45.264  13.271  56.4120  0.00  0.00     0.000 O
BRANCH 58 62
ATOM     59  C1  BGC B   5      47.052   9.981  54.6440  0.00  0.00     0.000 C
ATOM     60  C2  BGC B   5      45.552   9.882  54.8350  0.00  0.00     0.000 C
ATOM     61  C3  BGC B   5      44.955  11.253  55.0880  0.00  0.00     0.000 C
ATOM     62  C4  BGC B   5      45.666  11.908  56.2610  0.00  0.00     0.000 C
ATOM     63  C5  BGC B   5      47.186  11.905  56.0430  0.00  0.00     0.000 C
ATOM     64  O5  BGC B   5      47.617  10.566  55.8220  0.00  0.00     0.000 O
ATOM     65   O  BGC B   5      47.585  11.644  58.3380  0.00  0.00     0.000 O
ATOM     67  HD  BGC B   5      47.207  11.763  59.1080  0.00  0.00     0.000 HD
ATOM     67   O  BGC B   5      47.585  11.644  58.3380  0.00  0.00     0.000 O
ATOM     69  HD  BGC B   5      47.207  11.763  59.1080  0.00  0.00     0.000 HD
ENDBRANCH 58 62
ENDBRANCH 45 58
ENDBRANCH 44 48
ENDBRANCH 31 44
ENDBRANCH 30 34
ENDBRANCH 17 30
ENDBRANCH 16 20
ENDBRANCH 1 16
TORSDOF 8
ENDMDL
MODEL 70
REMARK VINA RESULT:      -0.1     71.312     79.334
ROOT
ATOM      1  C1  BGC B   1      54.255  65.447  44.4410  0.00  0.00     0.000 C
ATOM      2  C2  BGC B   1      54.248  66.790  45.1700  0.00  0.00     0.000 C
ATOM      3  C3  BGC B   1      55.309  67.703  44.5870  0.00  0.00     0.000 C
ATOM      4  C4  BGC B   1      56.663  67.005  44.5540  0.00  0.00     0.000 C
ATOM      5  C5  BGC B   1      56.513  65.700  43.7870  0.00  0.00     0.000 C
ATOM      6  O5  BGC B   1      55.560  64.889  44.4990  0.00  0.00     0.000 O
ATOM      7   O  BGC B   1      52.958  67.405  45.0160  0.00  0.00     0.000 O
ATOM      9  HD  BGC B   1      52.918  68.269  45.0450  0.00  0.00     0.000 HD
ATOM      9   O  BGC B   1      55.371  68.899  45.3710  0.00  0.00     0.000 O
ATOM     11  HD  BGC B   1      55.331  69.763  45.4000  0.00  0.00     0.000 HD
ATOM     11   O  BGC B   1      57.608  67.834  43.9130  0.00  0.00     0.000 O
ATOM     13  HD  BGC B   1      57.568  68.699  43.9420  0.00  0.00     0.000 HD
ATOM     13   C  BGC B   1      57.800  64.903  43.6240  0.00  0.00     0.000 C
ATOM     14   O  BGC B   1      58.427  64.626  44.8720  0.00  0.00     0.000 O
ATOM     16  HD  BGC B   1      58.388  65.490  44.9010  0.00  0.00     0.000 HD
ENDROOT
BRANCH 1 16
ATOM     16  O4  BGC B   2      53.441  64.569  45.2170  0.00  0.00     0.000 O
BRANCH 16 20
ATOM     17  C1  BGC B   2      50.863  61.447  44.8360  0.00  0.00     0.000 C
ATOM     18  C2  BGC B   2      52.323  61.061  44.6470  0.00  0.00     0.000 C
ATOM     19  C3  BGC B   2      53.196  62.201  45.1650  0.00  0.00     0.000 C
ATOM     20  C4  BGC B   2      52.807  63.509  44.5060  0.00  0.00     0.000 C
ATOM     21  C5  BGC B   2      51.299  63.760  44.5560  0.00  0.00     0.000 C
ATOM     22  O5  BGC B   2      50.628  62.612  44.0230  0.00  0.00     0.000 O
ATOM     23   O  BGC B   2      52.618  59.867  45.3900  0.00  0.00     0.000 O
ATOM     25  HD  BGC B   2      52.777  60.708  45.5240  0.00  0.00     0.000 HD
ATOM     25   O  BGC B   2      54.567  61.913  44.9160  0.00  0.00     0.000 O
ATOM     27  HD  BGC B   2      54.727  62.753  45.0490  0.00  0.00     0.000 HD
ATOM     27   C  BGC B   2      50.872  64.971  43.7360  0.00  0.00     0.000 C
ATOM     28   O  BGC B   2      51.269  64.898  42.3760  0.00  0.00     0.000 O
ATOM     30  HD  BGC B   2      51.429  65.738  42.5100  0.00  0.00     0.000 HD
BRANCH 17 30
ATOM     30  O4  BGC B   3      50.088  60.422  44.2430  0.00  0.00     0.000 O
BRANCH 30 34
ATOM     31  C1  BGC B   3      46.457  58.547  44.7170  0.00  0.00     0.000 C
ATOM     32  C2  BGC B   3      46.368  59.978  44.1870  0.00  0.00     0.000 C
ATOM     33  C3  BGC B   3      47.738  60.402  43.6860  0.00  0.00     0.000 C
ATOM     34  C4  BGC B   3      48.780  60.235  44.7920  0.00  0.00     0.000 C
ATOM     35  C5  BGC B   3      48.715  58.832  45.3710  0.00  0.00     0.000 C
ATOM     36  O5  BGC B   3      47.377  58.554  45.7970  0.00  0.00     0.000 O
ATOM     37   O  BGC B   3      45.454  60.024  43.0940  0.00  0.00     0.000 O
ATOM     39  HD  BGC B   3      45.502  60.889  43.1120  0.00  0.00     0.000 HD
ATOM     39   O  BGC B   3      47.664  61.756  43.2680  0.00  0.00     0.000 O
ATOM     41  HD  BGC B   3      47.712  62.621  43.2860  0.00  0.00     0.000 HD
ATOM     41   C  BGC B   3      49.660  58.603  46.5450  0.00  0.00     0.000 C
ATOM     42   O  BGC B   3      49.389  59.526  47.5740  0.00  0.00     0.000 O
ATOM     44  HD  BGC B   3      49.437  60.390  47.5920  0.00  0.00     0.000 HD
BRANCH 31 44
ATOM     44  O4  BGC B   4      45.203  58.228  45.2630  0.00  0.00     0.000 O
BRANCH 44 48
ATOM     45  C1  BGC B   4      42.705  55.026  45.8250  0.00  0.00     0.000 C
ATOM     46  C2  BGC B   4      43.920  55.056  46.7410  0.00  0.00     0.000 C
ATOM     47  C3  BGC B   4      44.531  56.435  46.7230  0.00  0.00     0.000 C
ATOM     48  C4  BGC B   4      44.831  56.864  45.2830  0.00  0.00     0.000 C
ATOM     49  C5  BGC B   4      43.585  56.709  44.4030  0.00  0.00     0.000 C
ATOM     50  O5  BGC B   4      43.093  55.364  44.4920  0.00  0.00     0.000 O
ATOM     51   O  BGC B   4      43.529  54.733  48.0890  0.00  0.00     0.000 O
ATOM     53  HD  BGC B   4      43.603  55.592  48.1700  0.00  0.00     0.000 HD
ATOM     53   O  BGC B   4      45.746  56.413  47.4850  0.00  0.00     0.000 O
ATOM     55  HD  BGC B   4      45.820  57.272  47.5660  0.00  0.00     0.000 HD
ATOM     55   C  BGC B   4      43.816  57.001  42.9310  0.00  0.00     0.000 C
ATOM     56   O  BGC B   4      44.885  56.165  42.4840  0.00  0.00     0.000 O
ATOM     58  HD  BGC B   4      44.959  57.024  42.5650  0.00  0.00     0.000 HD
BRANCH 45 58
ATOM     58  O4  BGC B   5      42.346  53.651  45.6960  0.00  0.00     0.000 O
BRANCH 58 62
ATOM     59  C1  BGC B   5      39.074  51.123  45.9240  0.00  0.00     0.000 C
ATOM     60  C2  BGC B   5      39.197  51.912  44.6360  0.00  0.00     0.000 C
ATOM     61  C3  BGC B   5      40.601  52.465  44.4820  0.00  0.00     0.000 C
ATOM     62  C4  BGC B   5      40.968  53.272  45.7180  0.00  0.00     0.000 C
ATOM     63  C5  BGC B   5      40.745  52.443  46.9910  0.00  0.00     0.000 C
ATOM     64  O5  BGC B   5      39.396  51.991  47.0160  0.00  0.00     0.000 O
ATOM     65   O  BGC B   5      40.117  54.349  48.2040  0.00  0.00     0.000 O
ATOM     67  HD  BGC B   5      40.193  55.212  48.1950  0.00  0.00     0.000 HD
ATOM     67   O  BGC B   5      40.117  54.349  48.2040  0.00  0.00     0.000 O
ATOM     69  HD  BGC B   5      40.193  55.212  48.1950  0.00  0.00     0.000 HD
ENDBRANCH 58 62
ENDBRANCH 45 58
ENDBRANCH 44 48
ENDBRANCH 31 44
ENDBRANCH 30 34
ENDBRANCH 17 30
ENDBRANCH 16 20
ENDBRANCH 1 16
TORSDOF 8
ENDMDL
MODEL 71
REMARK VINA RESULT:      -0.1     57.442     62.194
ROOT
ATOM      1  C1  BGC B   1      19.650  54.719  26.9440  0.00  0.00     0.000 C
ATOM      2  C2  BGC B   1      18.381  55.304  26.3270  0.00  0.00     0.000 C
ATOM      3  C3  BGC B   1      17.924  54.446  25.1630  0.00  0.00     0.000 C
ATOM      4  C4  BGC B   1      19.064  54.222  24.1780  0.00  0.00     0.000 C
ATOM      5  C5  BGC B   1      20.243  53.625  24.9330  0.00  0.00     0.000 C
ATOM      6  O5  BGC B   1      20.640  54.579  25.9340  0.00  0.00     0.000 O
ATOM      7   O  BGC B   1      17.345  55.342  27.3220  0.00  0.00     0.000 O
ATOM      9  HD  BGC B   1      16.524  55.296  27.0510  0.00  0.00     0.000 HD
ATOM      9   O  BGC B   1      16.816  55.087  24.5230  0.00  0.00     0.000 O
ATOM     11  HD  BGC B   1      15.995  55.041  24.2520  0.00  0.00     0.000 HD
ATOM     11   O  BGC B   1      18.645  53.337  23.1620  0.00  0.00     0.000 O
ATOM     13  HD  BGC B   1      17.824  53.290  22.8900  0.00  0.00     0.000 HD
ATOM     13   C  BGC B   1      21.453  53.296  24.0710  0.00  0.00     0.000 C
ATOM     14   O  BGC B   1      21.913  54.422  23.3300  0.00  0.00     0.000 O
ATOM     16  HD  BGC B   1      21.092  54.375  23.0580  0.00  0.00     0.000 HD
ENDROOT
BRANCH 1 16
ATOM     16  O4  BGC B   2      20.159  55.715  27.8280  0.00  0.00     0.000 O
BRANCH 16 20
ATOM     17  C1  BGC B   2      22.149  56.129  31.3500  0.00  0.00     0.000 C
ATOM     18  C2  BGC B   2      23.040  55.709  30.1910  0.00  0.00     0.000 C
ATOM     19  C3  BGC B   2      22.280  55.940  28.8870  0.00  0.00     0.000 C
ATOM     20  C4  BGC B   2      20.936  55.242  28.9260  0.00  0.00     0.000 C
ATOM     21  C5  BGC B   2      20.156  55.550  30.2050  0.00  0.00     0.000 C
ATOM     22  O5  BGC B   2      20.997  55.266  31.3310  0.00  0.00     0.000 O
ATOM     23   O  BGC B   2      24.242  56.496  30.1800  0.00  0.00     0.000 O
ATOM     25  HD  BGC B   2      23.513  56.515  29.7140  0.00  0.00     0.000 HD
ATOM     25   O  BGC B   2      23.049  55.467  27.7870  0.00  0.00     0.000 O
ATOM     27  HD  BGC B   2      22.319  55.486  27.3210  0.00  0.00     0.000 HD
ATOM     27   C  BGC B   2      18.892  54.711  30.3470  0.00  0.00     0.000 C
ATOM     28   O  BGC B   2      19.136  53.314  30.2950  0.00  0.00     0.000 O
ATOM     30  HD  BGC B   2      18.406  53.333  29.8290  0.00  0.00     0.000 HD
BRANCH 17 30
ATOM     30  O4  BGC B   3      22.840  55.796  32.5390  0.00  0.00     0.000 O
BRANCH 30 34
ATOM     31  C1  BGC B   3      23.235  57.094  36.4230  0.00  0.00     0.000 C
ATOM     32  C2  BGC B   3      21.884  56.457  36.1010  0.00  0.00     0.000 C
ATOM     33  C3  BGC B   3      22.004  55.679  34.8030  0.00  0.00     0.000 C
ATOM     34  C4  BGC B   3      22.521  56.587  33.6880  0.00  0.00     0.000 C
ATOM     35  C5  BGC B   3      23.788  57.298  34.1290  0.00  0.00     0.000 C
ATOM     36  O5  BGC B   3      23.545  57.983  35.3620  0.00  0.00     0.000 O
ATOM     37   O  BGC B   3      21.526  55.549  37.1410  0.00  0.00     0.000 O
ATOM     39  HD  BGC B   3      20.740  55.477  36.7850  0.00  0.00     0.000 HD
ATOM     39   O  BGC B   3      20.726  55.156  34.4720  0.00  0.00     0.000 O
ATOM     41  HD  BGC B   3      19.940  55.084  34.1160  0.00  0.00     0.000 HD
ATOM     41   C  BGC B   3      24.325  58.297  33.1110  0.00  0.00     0.000 C
ATOM     42   O  BGC B   3      23.347  59.267  32.8200  0.00  0.00     0.000 O
ATOM     44  HD  BGC B   3      22.561  59.195  32.4640  0.00  0.00     0.000 HD
BRANCH 31 44
ATOM     44  O4  BGC B   4      23.059  57.886  37.5700  0.00  0.00     0.000 O
BRANCH 44 48
ATOM     45  C1  BGC B   4      25.117  59.220  40.8540  0.00  0.00     0.000 C
ATOM     46  C2  BGC B   4      25.486  59.908  39.5480  0.00  0.00     0.000 C
ATOM     47  C3  BGC B   4      24.421  59.631  38.5150  0.00  0.00     0.000 C
ATOM     48  C4  BGC B   4      24.194  58.122  38.3770  0.00  0.00     0.000 C
ATOM     49  C5  BGC B   4      23.930  57.489  39.7480  0.00  0.00     0.000 C
ATOM     50  O5  BGC B   4      25.003  57.811  40.6460  0.00  0.00     0.000 O
ATOM     51   O  BGC B   4      25.585  61.331  39.7510  0.00  0.00     0.000 O
ATOM     53  HD  BGC B   4      24.807  61.300  39.3700  0.00  0.00     0.000 HD
ATOM     53   O  BGC B   4      24.845  60.174  37.2570  0.00  0.00     0.000 O
ATOM     55  HD  BGC B   4      24.067  60.144  36.8760  0.00  0.00     0.000 HD
ATOM     55   C  BGC B   4      23.808  55.975  39.7280  0.00  0.00     0.000 C
ATOM     56   O  BGC B   4      24.992  55.451  39.1230  0.00  0.00     0.000 O
ATOM     58  HD  BGC B   4      24.215  55.421  38.7430  0.00  0.00     0.000 HD
BRANCH 45 58
ATOM     58  O4  BGC B   5      26.275  59.309  41.6840  0.00  0.00     0.000 O
BRANCH 58 62
ATOM     59  C1  BGC B   5      27.443  60.371  45.5120  0.00  0.00     0.000 C
ATOM     60  C2  BGC B   5      26.809  59.001  45.3820  0.00  0.00     0.000 C
ATOM     61  C3  BGC B   5      26.807  58.550  43.9340  0.00  0.00     0.000 C
ATOM     62  C4  BGC B   5      26.131  59.607  43.0750  0.00  0.00     0.000 C
ATOM     63  C5  BGC B   5      26.766  60.984  43.3120  0.00  0.00     0.000 C
ATOM     64  O5  BGC B   5      26.701  61.288  44.7010  0.00  0.00     0.000 O
ATOM     65   O  BGC B   5      24.710  62.064  42.9900  0.00  0.00     0.000 O
ATOM     67  HD  BGC B   5      23.934  61.946  42.6250  0.00  0.00     0.000 HD
ATOM     67   O  BGC B   5      24.710  62.064  42.9900  0.00  0.00     0.000 O
ATOM     69  HD  BGC B   5      23.934  61.946  42.6250  0.00  0.00     0.000 HD
ENDBRANCH 58 62
ENDBRANCH 45 58
ENDBRANCH 44 48
ENDBRANCH 31 44
ENDBRANCH 30 34
ENDBRANCH 17 30
ENDBRANCH 16 20
ENDBRANCH 1 16
TORSDOF 8
ENDMDL
MODEL 72
REMARK VINA RESULT:      -0.1     56.600     65.059
ROOT
ATOM      1  C1  BGC B   1      60.060  13.882  56.7850  0.00  0.00     0.000 C
ATOM      2  C2  BGC B   1      60.319  15.235  57.4450  0.00  0.00     0.000 C
ATOM      3  C3  BGC B   1      61.539  15.151  58.3420  0.00  0.00     0.000 C
ATOM      4  C4  BGC B   1      61.415  13.984  59.3130  0.00  0.00     0.000 C
ATOM      5  C5  BGC B   1      61.177  12.713  58.5100  0.00  0.00     0.000 C
ATOM      6  O5  BGC B   1      59.942  12.885  57.7900  0.00  0.00     0.000 O
ATOM      7   O  BGC B   1      60.548  16.222  56.4260  0.00  0.00     0.000 O
ATOM      9  HD  BGC B   1      61.044  16.902  56.6280  0.00  0.00     0.000 HD
ATOM      9   O  BGC B   1      61.680  16.388  59.0470  0.00  0.00     0.000 O
ATOM     11  HD  BGC B   1      62.177  17.068  59.2500  0.00  0.00     0.000 HD
ATOM     11   O  BGC B   1      62.605  13.863  60.0620  0.00  0.00     0.000 O
ATOM     13  HD  BGC B   1      63.102  14.543  60.2650  0.00  0.00     0.000 HD
ATOM     13   C  BGC B   1      61.079  11.442  59.3410  0.00  0.00     0.000 C
ATOM     14   O  BGC B   1      60.082  11.532  60.3550  0.00  0.00     0.000 O
ATOM     16  HD  BGC B   1      60.579  12.211  60.5570  0.00  0.00     0.000 HD
ENDROOT
BRANCH 1 16
ATOM     16  O4  BGC B   2      58.764  13.969  56.1940  0.00  0.00     0.000 O
BRANCH 16 20
ATOM     17  C1  BGC B   2      56.627  12.648  52.9960  0.00  0.00     0.000 C
ATOM     18  C2  BGC B   2      56.834  11.592  54.0720  0.00  0.00     0.000 C
ATOM     19  C3  BGC B   2      57.310  12.285  55.3460  0.00  0.00     0.000 C
ATOM     20  C4  BGC B   2      58.533  13.133  55.0630  0.00  0.00     0.000 C
ATOM     21  C5  BGC B   2      58.341  14.046  53.8510  0.00  0.00     0.000 C
ATOM     22  O5  BGC B   2      57.912  13.246  52.7410  0.00  0.00     0.000 O
ATOM     23   O  BGC B   2      55.596  10.912  54.3400  0.00  0.00     0.000 O
ATOM     25  HD  BGC B   2      56.039  11.530  54.7540  0.00  0.00     0.000 HD
ATOM     25   O  BGC B   2      57.604  11.314  56.3440  0.00  0.00     0.000 O
ATOM     27  HD  BGC B   2      58.047  11.932  56.7580  0.00  0.00     0.000 HD
ATOM     27   C  BGC B   2      59.620  14.763  53.4390  0.00  0.00     0.000 C
ATOM     28   O  BGC B   2      60.698  13.881  53.1690  0.00  0.00     0.000 O
ATOM     30  HD  BGC B   2      61.141  14.500  53.5830  0.00  0.00     0.000 HD
BRANCH 17 30
ATOM     30  O4  BGC B   3      56.297  11.960  51.8040  0.00  0.00     0.000 O
BRANCH 30 34
ATOM     31  C1  BGC B   3      54.053  12.470  48.3940  0.00  0.00     0.000 C
ATOM     32  C2  BGC B   3      55.318  13.325  48.4550  0.00  0.00     0.000 C
ATOM     33  C3  BGC B   3      56.236  12.768  49.5280  0.00  0.00     0.000 C
ATOM     34  C4  BGC B   3      55.500  12.689  50.8650  0.00  0.00     0.000 C
ATOM     35  C5  BGC B   3      54.184  11.949  50.7010  0.00  0.00     0.000 C
ATOM     36  O5  BGC B   3      53.419  12.565  49.6600  0.00  0.00     0.000 O
ATOM     37   O  BGC B   3      55.996  13.261  47.2030  0.00  0.00     0.000 O
ATOM     39  HD  BGC B   3      56.523  13.893  47.4740  0.00  0.00     0.000 HD
ATOM     39   O  BGC B   3      57.372  13.614  49.6310  0.00  0.00     0.000 O
ATOM     41  HD  BGC B   3      57.899  14.245  49.9030  0.00  0.00     0.000 HD
ATOM     41   C  BGC B   3      53.338  11.902  51.9680  0.00  0.00     0.000 C
ATOM     42   O  BGC B   3      53.064  13.207  52.4180  0.00  0.00     0.000 O
ATOM     44  HD  BGC B   3      53.591  13.839  52.6900  0.00  0.00     0.000 HD
BRANCH 31 44
ATOM     44  O4  BGC B   4      53.187  13.073  47.4670  0.00  0.00     0.000 O
BRANCH 44 48
ATOM     45  C1  BGC B   4      50.286  12.110  44.7360  0.00  0.00     0.000 C
ATOM     46  C2  BGC B   4      49.850  12.012  46.1910  0.00  0.00     0.000 C
ATOM     47  C3  BGC B   4      50.837  12.749  47.0630  0.00  0.00     0.000 C
ATOM     48  C4  BGC B   4      52.258  12.238  46.8070  0.00  0.00     0.000 C
ATOM     49  C5  BGC B   4      52.582  12.274  45.3090  0.00  0.00     0.000 C
ATOM     50  O5  BGC B   4      51.587  11.541  44.5800  0.00  0.00     0.000 O
ATOM     51   O  BGC B   4      48.546  12.600  46.3560  0.00  0.00     0.000 O
ATOM     53  HD  BGC B   4      49.028  13.245  46.6740  0.00  0.00     0.000 HD
ATOM     53   O  BGC B   4      50.486  12.538  48.4380  0.00  0.00     0.000 O
ATOM     55  HD  BGC B   4      50.969  13.183  48.7560  0.00  0.00     0.000 HD
ATOM     55   C  BGC B   4      53.930  11.677  44.9440  0.00  0.00     0.000 C
ATOM     56   O  BGC B   4      53.970  10.346  45.4610  0.00  0.00     0.000 O
ATOM     58  HD  BGC B   4      54.453  10.991  45.7790  0.00  0.00     0.000 HD
BRANCH 45 58
ATOM     58  O4  BGC B   5      49.465  11.188  44.0190  0.00  0.00     0.000 O
BRANCH 58 62
ATOM     59  C1  BGC B   5      47.071  10.928  40.6510  0.00  0.00     0.000 C
ATOM     60  C2  BGC B   5      48.562  10.833  40.3970  0.00  0.00     0.000 C
ATOM     61  C3  BGC B   5      49.302  10.522  41.6840  0.00  0.00     0.000 C
ATOM     62  C4  BGC B   5      48.938  11.552  42.7410  0.00  0.00     0.000 C
ATOM     63  C5  BGC B   5      47.414  11.657  42.8920  0.00  0.00     0.000 C
ATOM     64  O5  BGC B   5      46.845  11.954  41.6220  0.00  0.00     0.000 O
ATOM     65   O  BGC B   5      47.549  13.951  43.3570  0.00  0.00     0.000 O
ATOM     67  HD  BGC B   5      48.105  14.553  43.6370  0.00  0.00     0.000 HD
ATOM     67   O  BGC B   5      47.549  13.951  43.3570  0.00  0.00     0.000 O
ATOM     69  HD  BGC B   5      48.105  14.553  43.6370  0.00  0.00     0.000 HD
ENDBRANCH 58 62
ENDBRANCH 45 58
ENDBRANCH 44 48
ENDBRANCH 31 44
ENDBRANCH 30 34
ENDBRANCH 17 30
ENDBRANCH 16 20
ENDBRANCH 1 16
TORSDOF 8
ENDMDL
MODEL 73
REMARK VINA RESULT:      -0.1     76.430     79.172
ROOT
ATOM      1  C1  BGC B   1      68.441  56.601  22.0870  0.00  0.00     0.000 C
ATOM      2  C2  BGC B   1      67.923  56.443  20.6580  0.00  0.00     0.000 C
ATOM      3  C3  BGC B   1      69.054  56.029  19.7370  0.00  0.00     0.000 C
ATOM      4  C4  BGC B   1      70.240  56.973  19.8820  0.00  0.00     0.000 C
ATOM      5  C5  BGC B   1      70.648  57.013  21.3470  0.00  0.00     0.000 C
ATOM      6  O5  BGC B   1      69.525  57.518  22.0930  0.00  0.00     0.000 O
ATOM      7   O  BGC B   1      66.900  55.433  20.6350  0.00  0.00     0.000 O
ATOM      9  HD  BGC B   1      66.785  54.994  19.8980  0.00  0.00     0.000 HD
ATOM      9   O  BGC B   1      68.572  56.018  18.3900  0.00  0.00     0.000 O
ATOM     11  HD  BGC B   1      68.457  55.579  17.6520  0.00  0.00     0.000 HD
ATOM     11   O  BGC B   1      71.315  56.507  19.0960  0.00  0.00     0.000 O
ATOM     13  HD  BGC B   1      71.200  56.068  18.3580  0.00  0.00     0.000 HD
ATOM     13   C  BGC B   1      71.860  57.882  21.6500  0.00  0.00     0.000 C
ATOM     14   O  BGC B   1      71.697  59.220  21.1890  0.00  0.00     0.000 O
ATOM     16  HD  BGC B   1      71.581  58.781  20.4510  0.00  0.00     0.000 HD
ENDROOT
BRANCH 1 16
ATOM     16  O4  BGC B   2      67.401  57.249  22.8180  0.00  0.00     0.000 O
BRANCH 16 20
ATOM     17  C1  BGC B   2      65.733  57.404  26.5230  0.00  0.00     0.000 C
ATOM     18  C2  BGC B   2      67.070  58.124  26.4240  0.00  0.00     0.000 C
ATOM     19  C3  BGC B   2      67.411  58.313  24.9480  0.00  0.00     0.000 C
ATOM     20  C4  BGC B   2      67.361  56.986  24.2180  0.00  0.00     0.000 C
ATOM     21  C5  BGC B   2      66.073  56.213  24.5020  0.00  0.00     0.000 C
ATOM     22  O5  BGC B   2      65.908  56.108  25.9220  0.00  0.00     0.000 O
ATOM     23   O  BGC B   2      66.986  59.412  27.0560  0.00  0.00     0.000 O
ATOM     25  HD  BGC B   2      66.978  59.151  26.2310  0.00  0.00     0.000 HD
ATOM     25   O  BGC B   2      68.701  58.898  24.8190  0.00  0.00     0.000 O
ATOM     27  HD  BGC B   2      68.693  58.637  23.9940  0.00  0.00     0.000 HD
ATOM     27   C  BGC B   2      66.090  54.801  23.9310  0.00  0.00     0.000 C
ATOM     28   O  BGC B   2      67.187  54.024  24.3830  0.00  0.00     0.000 O
ATOM     30  HD  BGC B   2      67.179  53.763  23.5580  0.00  0.00     0.000 HD
BRANCH 17 30
ATOM     30  O4  BGC B   3      65.508  57.147  27.8970  0.00  0.00     0.000 O
BRANCH 30 34
ATOM     31  C1  BGC B   3      62.395  56.786  30.5620  0.00  0.00     0.000 C
ATOM     32  C2  BGC B   3      62.522  55.627  29.5740  0.00  0.00     0.000 C
ATOM     33  C3  BGC B   3      63.899  55.674  28.9360  0.00  0.00     0.000 C
ATOM     34  C4  BGC B   3      64.137  57.040  28.2930  0.00  0.00     0.000 C
ATOM     35  C5  BGC B   3      63.853  58.150  29.2890  0.00  0.00     0.000 C
ATOM     36  O5  BGC B   3      62.534  57.988  29.8210  0.00  0.00     0.000 O
ATOM     37   O  BGC B   3      62.391  54.390  30.2720  0.00  0.00     0.000 O
ATOM     39  HD  BGC B   3      62.359  53.982  29.5090  0.00  0.00     0.000 HD
ATOM     39   O  BGC B   3      63.981  54.642  27.9650  0.00  0.00     0.000 O
ATOM     41  HD  BGC B   3      63.949  54.233  27.2020  0.00  0.00     0.000 HD
ATOM     41   C  BGC B   3      63.976  59.553  28.7050  0.00  0.00     0.000 C
ATOM     42   O  BGC B   3      63.104  59.702  27.6100  0.00  0.00     0.000 O
ATOM     44  HD  BGC B   3      63.072  59.293  26.8470  0.00  0.00     0.000 HD
BRANCH 31 44
ATOM     44  O4  BGC B   4      61.079  56.770  31.0530  0.00  0.00     0.000 O
BRANCH 44 48
ATOM     45  C1  BGC B   4      58.940  57.682  34.4290  0.00  0.00     0.000 C
ATOM     46  C2  BGC B   4      59.395  58.887  33.6170  0.00  0.00     0.000 C
ATOM     47  C3  BGC B   4      59.809  58.437  32.2380  0.00  0.00     0.000 C
ATOM     48  C4  BGC B   4      60.857  57.324  32.3340  0.00  0.00     0.000 C
ATOM     49  C5  BGC B   4      60.364  56.197  33.2500  0.00  0.00     0.000 C
ATOM     50  O5  BGC B   4      60.004  56.735  34.5300  0.00  0.00     0.000 O
ATOM     51   O  BGC B   4      58.319  59.837  33.4980  0.00  0.00     0.000 O
ATOM     53  HD  BGC B   4      58.274  59.480  32.7110  0.00  0.00     0.000 HD
ATOM     53   O  BGC B   4      60.357  59.558  31.5310  0.00  0.00     0.000 O
ATOM     55  HD  BGC B   4      60.312  59.202  30.7430  0.00  0.00     0.000 HD
ATOM     55   C  BGC B   4      61.384  55.100  33.5000  0.00  0.00     0.000 C
ATOM     56   O  BGC B   4      62.568  55.716  34.0110  0.00  0.00     0.000 O
ATOM     58  HD  BGC B   4      62.524  55.359  33.2230  0.00  0.00     0.000 HD
BRANCH 45 58
ATOM     58  O4  BGC B   5      58.816  58.142  35.7750  0.00  0.00     0.000 O
BRANCH 58 62
ATOM     59  C1  BGC B   5      56.213  58.082  38.9950  0.00  0.00     0.000 C
ATOM     60  C2  BGC B   5      56.996  56.805  38.7680  0.00  0.00     0.000 C
ATOM     61  C3  BGC B   5      58.186  57.063  37.8630  0.00  0.00     0.000 C
ATOM     62  C4  BGC B   5      57.710  57.711  36.5730  0.00  0.00     0.000 C
ATOM     63  C5  BGC B   5      56.857  58.952  36.8730  0.00  0.00     0.000 C
ATOM     64  O5  BGC B   5      55.779  58.575  37.7230  0.00  0.00     0.000 O
ATOM     65   O  BGC B   5      55.504  58.559  34.9990  0.00  0.00     0.000 O
ATOM     67  HD  BGC B   5      55.505  58.146  34.2380  0.00  0.00     0.000 HD
ATOM     67   O  BGC B   5      55.504  58.559  34.9990  0.00  0.00     0.000 O
ATOM     69  HD  BGC B   5      55.505  58.146  34.2380  0.00  0.00     0.000 HD
ENDBRANCH 58 62
ENDBRANCH 45 58
ENDBRANCH 44 48
ENDBRANCH 31 44
ENDBRANCH 30 34
ENDBRANCH 17 30
ENDBRANCH 16 20
ENDBRANCH 1 16
TORSDOF 8
ENDMDL
MODEL 74
REMARK VINA RESULT:      -0.1     76.666     79.295
ROOT
ATOM      1  C1  BGC B   1      64.051  22.189  60.0500  0.00  0.00     0.000 C
ATOM      2  C2  BGC B   1      63.715  22.509  58.5940  0.00  0.00     0.000 C
ATOM      3  C3  BGC B   1      64.901  23.172  57.9200  0.00  0.00     0.000 C
ATOM      4  C4  BGC B   1      65.390  24.362  58.7360  0.00  0.00     0.000 C
ATOM      5  C5  BGC B   1      65.696  23.884  60.1480  0.00  0.00     0.000 C
ATOM      6  O5  BGC B   1      64.470  23.377  60.7060  0.00  0.00     0.000 O
ATOM      7   O  BGC B   1      63.398  21.290  57.9020  0.00  0.00     0.000 O
ATOM      9  HD  BGC B   1      63.546  21.261  57.0500  0.00  0.00     0.000 HD
ATOM      9   O  BGC B   1      64.516  23.580  56.6040  0.00  0.00     0.000 O
ATOM     11  HD  BGC B   1      64.664  23.551  55.7510  0.00  0.00     0.000 HD
ATOM     11   O  BGC B   1      66.555  24.895  58.1450  0.00  0.00     0.000 O
ATOM     13  HD  BGC B   1      66.703  24.866  57.2930  0.00  0.00     0.000 HD
ATOM     13   C  BGC B   1      66.245  24.955  61.0800  0.00  0.00     0.000 C
ATOM     14   O  BGC B   1      65.391  26.092  61.1610  0.00  0.00     0.000 O
ATOM     16  HD  BGC B   1      65.539  26.063  60.3090  0.00  0.00     0.000 HD
ENDROOT
BRANCH 1 16
ATOM     16  O4  BGC B   2      62.818  21.834  60.6740  0.00  0.00     0.000 O
BRANCH 16 20
ATOM     17  C1  BGC B   2      61.286  19.402  63.5500  0.00  0.00     0.000 C
ATOM     18  C2  BGC B   2      62.040  20.603  64.1030  0.00  0.00     0.000 C
ATOM     19  C3  BGC B   2      62.242  21.610  62.9730  0.00  0.00     0.000 C
ATOM     20  C4  BGC B   2      62.910  20.947  61.7850  0.00  0.00     0.000 C
ATOM     21  C5  BGC B   2      62.224  19.640  61.3860  0.00  0.00     0.000 C
ATOM     22  O5  BGC B   2      62.126  18.804  62.5460  0.00  0.00     0.000 O
ATOM     23   O  BGC B   2      61.281  21.222  65.1540  0.00  0.00     0.000 O
ATOM     25  HD  BGC B   2      61.420  21.420  64.3230  0.00  0.00     0.000 HD
ATOM     25   O  BGC B   2      63.029  22.703  63.4340  0.00  0.00     0.000 O
ATOM     27  HD  BGC B   2      63.168  22.901  62.6020  0.00  0.00     0.000 HD
ATOM     27   C  BGC B   2      62.992  18.868  60.3210  0.00  0.00     0.000 C
ATOM     28   O  BGC B   2      64.329  18.577  60.6910  0.00  0.00     0.000 O
ATOM     30  HD  BGC B   2      64.469  18.775  59.8600  0.00  0.00     0.000 HD
BRANCH 17 30
ATOM     30  O4  BGC B   3      61.218  18.447  64.5920  0.00  0.00     0.000 O
BRANCH 30 34
ATOM     31  C1  BGC B   3      58.740  15.470  65.9770  0.00  0.00     0.000 C
ATOM     32  C2  BGC B   3      59.460  15.139  64.6700  0.00  0.00     0.000 C
ATOM     33  C3  BGC B   3      60.612  16.111  64.4850  0.00  0.00     0.000 C
ATOM     34  C4  BGC B   3      60.103  17.551  64.5430  0.00  0.00     0.000 C
ATOM     35  C5  BGC B   3      59.276  17.769  65.7970  0.00  0.00     0.000 C
ATOM     36  O5  BGC B   3      58.234  16.790  65.8570  0.00  0.00     0.000 O
ATOM     37   O  BGC B   3      59.991  13.818  64.7410  0.00  0.00     0.000 O
ATOM     39  HD  BGC B   3      60.181  13.867  63.8970  0.00  0.00     0.000 HD
ATOM     39   O  BGC B   3      61.226  15.846  63.2330  0.00  0.00     0.000 O
ATOM     41  HD  BGC B   3      61.417  15.896  62.3890  0.00  0.00     0.000 HD
ATOM     41   C  BGC B   3      58.651  19.156  65.8930  0.00  0.00     0.000 C
ATOM     42   O  BGC B   3      57.835  19.400  64.7720  0.00  0.00     0.000 O
ATOM     44  HD  BGC B   3      58.025  19.449  63.9280  0.00  0.00     0.000 HD
BRANCH 31 44
ATOM     44  O4  BGC B   4      57.624  14.621  66.0630  0.00  0.00     0.000 O
BRANCH 44 48
ATOM     45  C1  BGC B   4      55.304  12.698  68.8420  0.00  0.00     0.000 C
ATOM     46  C2  BGC B   4      55.067  14.198  68.7420  0.00  0.00     0.000 C
ATOM     47  C3  BGC B   4      55.663  14.716  67.4560  0.00  0.00     0.000 C
ATOM     48  C4  BGC B   4      57.138  14.315  67.3540  0.00  0.00     0.000 C
ATOM     49  C5  BGC B   4      57.302  12.805  67.5670  0.00  0.00     0.000 C
ATOM     50  O5  BGC B   4      56.706  12.425  68.8160  0.00  0.00     0.000 O
ATOM     51   O  BGC B   4      53.654  14.476  68.7500  0.00  0.00     0.000 O
ATOM     53  HD  BGC B   4      53.807  14.570  67.9030  0.00  0.00     0.000 HD
ATOM     53   O  BGC B   4      55.548  16.147  67.4370  0.00  0.00     0.000 O
ATOM     55  HD  BGC B   4      55.701  16.240  66.5900  0.00  0.00     0.000 HD
ATOM     55   C  BGC B   4      58.743  12.329  67.6000  0.00  0.00     0.000 C
ATOM     56   O  BGC B   4      59.428  13.081  68.6030  0.00  0.00     0.000 O
ATOM     58  HD  BGC B   4      59.581  13.174  67.7550  0.00  0.00     0.000 HD
BRANCH 45 58
ATOM     58  O4  BGC B   5      54.951  12.334  70.1760  0.00  0.00     0.000 O
BRANCH 58 62
ATOM     59  C1  BGC B   5      52.744   9.550  72.3040  0.00  0.00     0.000 C
ATOM     60  C2  BGC B   5      54.076   9.057  71.7760  0.00  0.00     0.000 C
ATOM     61  C3  BGC B   5      54.963  10.227  71.3940  0.00  0.00     0.000 C
ATOM     62  C4  BGC B   5      54.225  11.126  70.4140  0.00  0.00     0.000 C
ATOM     63  C5  BGC B   5      52.852  11.524  70.9740  0.00  0.00     0.000 C
ATOM     64  O5  BGC B   5      52.122  10.342  71.2870  0.00  0.00     0.000 O
ATOM     65   O  BGC B   5      51.903  11.530  68.8300  0.00  0.00     0.000 O
ATOM     67  HD  BGC B   5      52.121  11.591  67.9940  0.00  0.00     0.000 HD
ATOM     67   O  BGC B   5      51.903  11.530  68.8300  0.00  0.00     0.000 O
ATOM     69  HD  BGC B   5      52.121  11.591  67.9940  0.00  0.00     0.000 HD
ENDBRANCH 58 62
ENDBRANCH 45 58
ENDBRANCH 44 48
ENDBRANCH 31 44
ENDBRANCH 30 34
ENDBRANCH 17 30
ENDBRANCH 16 20
ENDBRANCH 1 16
TORSDOF 8
ENDMDL
MODEL 75
REMARK VINA RESULT:      -0.1     70.113     74.944
ROOT
ATOM      1  C1  BGC B   1      61.079  58.447  28.8460  0.00  0.00     0.000 C
ATOM      2  C2  BGC B   1      62.596  58.319  28.9820  0.00  0.00     0.000 C
ATOM      3  C3  BGC B   1      63.286  59.267  28.0200  0.00  0.00     0.000 C
ATOM      4  C4  BGC B   1      62.757  59.077  26.6040  0.00  0.00     0.000 C
ATOM      5  C5  BGC B   1      61.245  59.248  26.6280  0.00  0.00     0.000 C
ATOM      6  O5  BGC B   1      60.710  58.229  27.4920  0.00  0.00     0.000 O
ATOM      7   O  BGC B   1      62.979  58.649  30.3280  0.00  0.00     0.000 O
ATOM      9  HD  BGC B   1      63.774  58.968  30.4530  0.00  0.00     0.000 HD
ATOM      9   O  BGC B   1      64.696  59.032  28.0730  0.00  0.00     0.000 O
ATOM     11  HD  BGC B   1      65.492  59.351  28.1980  0.00  0.00     0.000 HD
ATOM     11   O  BGC B   1      63.336  60.039  25.7490  0.00  0.00     0.000 O
ATOM     13  HD  BGC B   1      64.132  60.358  25.8740  0.00  0.00     0.000 HD
ATOM     13   C  BGC B   1      60.568  59.135  25.2690  0.00  0.00     0.000 C
ATOM     14   O  BGC B   1      60.875  57.910  24.6110  0.00  0.00     0.000 O
ATOM     16  HD  BGC B   1      61.670  58.229  24.7360  0.00  0.00     0.000 HD
ENDROOT
BRANCH 1 16
ATOM     16  O4  BGC B   2      60.521  57.349  29.5650  0.00  0.00     0.000 O
BRANCH 16 20
ATOM     17  C1  BGC B   2      57.306  56.333  31.8380  0.00  0.00     0.000 C
ATOM     18  C2  BGC B   2      56.998  56.426  30.3510  0.00  0.00     0.000 C
ATOM     19  C3  BGC B   2      58.318  56.446  29.5830  0.00  0.00     0.000 C
ATOM     20  C4  BGC B   2      59.217  57.549  30.1040  0.00  0.00     0.000 C
ATOM     21  C5  BGC B   2      59.343  57.527  31.6280  0.00  0.00     0.000 C
ATOM     22  O5  BGC B   2      58.026  57.528  32.1940  0.00  0.00     0.000 O
ATOM     23   O  BGC B   2      56.229  55.286  29.9330  0.00  0.00     0.000 O
ATOM     25  HD  BGC B   2      57.063  55.505  29.8530  0.00  0.00     0.000 HD
ATOM     25   O  BGC B   2      58.068  56.629  28.1940  0.00  0.00     0.000 O
ATOM     27  HD  BGC B   2      58.902  56.847  28.1140  0.00  0.00     0.000 HD
ATOM     27   C  BGC B   2      60.086  58.737  32.1800  0.00  0.00     0.000 C
ATOM     28   O  BGC B   2      59.509  59.975  31.7950  0.00  0.00     0.000 O
ATOM     30  HD  BGC B   2      60.343  60.193  31.7150  0.00  0.00     0.000 HD
BRANCH 17 30
ATOM     30  O4  BGC B   3      56.069  56.431  32.5190  0.00  0.00     0.000 O
BRANCH 30 34
ATOM     31  C1  BGC B   3      54.249  55.076  35.9500  0.00  0.00     0.000 C
ATOM     32  C2  BGC B   3      55.333  56.128  36.1800  0.00  0.00     0.000 C
ATOM     33  C3  BGC B   3      55.632  56.821  34.8630  0.00  0.00     0.000 C
ATOM     34  C4  BGC B   3      56.010  55.792  33.7980  0.00  0.00     0.000 C
ATOM     35  C5  BGC B   3      54.959  54.699  33.7230  0.00  0.00     0.000 C
ATOM     36  O5  BGC B   3      54.765  54.134  35.0240  0.00  0.00     0.000 O
ATOM     37   O  BGC B   3      54.861  57.104  37.1060  0.00  0.00     0.000 O
ATOM     39  HD  BGC B   3      55.660  57.435  37.1400  0.00  0.00     0.000 HD
ATOM     39   O  BGC B   3      56.694  57.741  35.0690  0.00  0.00     0.000 O
ATOM     41  HD  BGC B   3      57.493  58.072  35.1030  0.00  0.00     0.000 HD
ATOM     41   C  BGC B   3      55.300  53.577  32.7480  0.00  0.00     0.000 C
ATOM     42   O  BGC B   3      56.532  52.990  33.0950  0.00  0.00     0.000 O
ATOM     44  HD  BGC B   3      57.331  53.321  33.1290  0.00  0.00     0.000 HD
BRANCH 31 44
ATOM     44  O4  BGC B   4      54.073  54.389  37.1630  0.00  0.00     0.000 O
BRANCH 44 48
ATOM     45  C1  BGC B   4      51.167  52.483  39.3380  0.00  0.00     0.000 C
ATOM     46  C2  BGC B   4      51.684  51.700  38.1390  0.00  0.00     0.000 C
ATOM     47  C3  BGC B   4      52.984  52.302  37.6670  0.00  0.00     0.000 C
ATOM     48  C4  BGC B   4      52.810  53.800  37.3980  0.00  0.00     0.000 C
ATOM     49  C5  BGC B   4      52.192  54.498  38.6160  0.00  0.00     0.000 C
ATOM     50  O5  BGC B   4      50.962  53.849  38.9730  0.00  0.00     0.000 O
ATOM     51   O  BGC B   4      51.908  50.326  38.5070  0.00  0.00     0.000 O
ATOM     53  HD  BGC B   4      52.727  50.606  38.5190  0.00  0.00     0.000 HD
ATOM     53   O  BGC B   4      53.390  51.638  36.4620  0.00  0.00     0.000 O
ATOM     55  HD  BGC B   4      54.210  51.919  36.4730  0.00  0.00     0.000 HD
ATOM     55   C  BGC B   4      51.873  55.967  38.4030  0.00  0.00     0.000 C
ATOM     56   O  BGC B   4      51.031  56.067  37.2530  0.00  0.00     0.000 O
ATOM     58  HD  BGC B   4      51.850  56.348  37.2640  0.00  0.00     0.000 HD
BRANCH 45 58
ATOM     58  O4  BGC B   5      49.833  52.026  39.5580  0.00  0.00     0.000 O
BRANCH 58 62
ATOM     59  C1  BGC B   5      47.313  50.704  42.5660  0.00  0.00     0.000 C
ATOM     60  C2  BGC B   5      47.540  52.201  42.5200  0.00  0.00     0.000 C
ATOM     61  C3  BGC B   5      48.112  52.612  41.1760  0.00  0.00     0.000 C
ATOM     62  C4  BGC B   5      49.370  51.806  40.8930  0.00  0.00     0.000 C
ATOM     63  C5  BGC B   5      49.093  50.302  41.0340  0.00  0.00     0.000 C
ATOM     64  O5  BGC B   5      48.565  50.052  42.3330  0.00  0.00     0.000 O
ATOM     65   O  BGC B   5      51.256  49.910  41.8480  0.00  0.00     0.000 O
ATOM     67  HD  BGC B   5      52.049  50.259  41.8580  0.00  0.00     0.000 HD
ATOM     67   O  BGC B   5      51.256  49.910  41.8480  0.00  0.00     0.000 O
ATOM     69  HD  BGC B   5      52.049  50.259  41.8580  0.00  0.00     0.000 HD
ENDBRANCH 58 62
ENDBRANCH 45 58
ENDBRANCH 44 48
ENDBRANCH 31 44
ENDBRANCH 30 34
ENDBRANCH 17 30
ENDBRANCH 16 20
ENDBRANCH 1 16
TORSDOF 8
ENDMDL
MODEL 76
REMARK VINA RESULT:      -0.1     75.809     83.808
ROOT
ATOM      1  C1  BGC B   1      63.810  53.784  38.0010  0.00  0.00     0.000 C
ATOM      2  C2  BGC B   1      63.862  53.514  39.5030  0.00  0.00     0.000 C
ATOM      3  C3  BGC B   1      63.988  52.024  39.7600  0.00  0.00     0.000 C
ATOM      4  C4  BGC B   1      62.906  51.255  39.0130  0.00  0.00     0.000 C
ATOM      5  C5  BGC B   1      62.990  51.616  37.5370  0.00  0.00     0.000 C
ATOM      6  O5  BGC B   1      62.752  53.031  37.4250  0.00  0.00     0.000 O
ATOM      7   O  BGC B   1      65.000  54.188  40.0660  0.00  0.00     0.000 O
ATOM      9  HD  BGC B   1      65.356  53.851  40.7800  0.00  0.00     0.000 HD
ATOM      9   O  BGC B   1      63.901  51.789  41.1680  0.00  0.00     0.000 O
ATOM     11  HD  BGC B   1      64.257  51.451  41.8820  0.00  0.00     0.000 HD
ATOM     11   O  BGC B   1      63.107  49.869  39.1820  0.00  0.00     0.000 O
ATOM     13  HD  BGC B   1      63.463  49.531  39.8950  0.00  0.00     0.000 HD
ATOM     13   C  BGC B   1      61.997  50.886  36.6440  0.00  0.00     0.000 C
ATOM     14   O  BGC B   1      60.651  51.058  37.0760  0.00  0.00     0.000 O
ATOM     16  HD  BGC B   1      61.006  50.720  37.7890  0.00  0.00     0.000 HD
ENDROOT
BRANCH 1 16
ATOM     16  O4  BGC B   2      63.417  55.148  37.8550  0.00  0.00     0.000 O
BRANCH 16 20
ATOM     17  C1  BGC B   2      63.973  58.384  35.4560  0.00  0.00     0.000 C
ATOM     18  C2  BGC B   2      63.059  57.326  34.8540  0.00  0.00     0.000 C
ATOM     19  C3  BGC B   2      62.638  56.362  35.9610  0.00  0.00     0.000 C
ATOM     20  C4  BGC B   2      63.856  55.805  36.6690  0.00  0.00     0.000 C
ATOM     21  C5  BGC B   2      64.839  56.899  37.0870  0.00  0.00     0.000 C
ATOM     22  O5  BGC B   2      65.144  57.701  35.9400  0.00  0.00     0.000 O
ATOM     23   O  BGC B   2      61.886  57.945  34.2990  0.00  0.00     0.000 O
ATOM     25  HD  BGC B   2      62.040  57.506  35.0290  0.00  0.00     0.000 HD
ATOM     25   O  BGC B   2      61.859  55.305  35.4130  0.00  0.00     0.000 O
ATOM     27  HD  BGC B   2      62.013  54.867  36.1440  0.00  0.00     0.000 HD
ATOM     27   C  BGC B   2      66.151  56.343  37.6280  0.00  0.00     0.000 C
ATOM     28   O  BGC B   2      66.809  55.473  36.7220  0.00  0.00     0.000 O
ATOM     30  HD  BGC B   2      66.963  55.035  37.4520  0.00  0.00     0.000 HD
BRANCH 17 30
ATOM     30  O4  BGC B   3      64.430  59.187  34.3840  0.00  0.00     0.000 O
BRANCH 30 34
ATOM     31  C1  BGC B   3      65.578  63.064  33.6260  0.00  0.00     0.000 C
ATOM     32  C2  BGC B   3      66.582  62.254  34.4440  0.00  0.00     0.000 C
ATOM     33  C3  BGC B   3      66.246  60.779  34.3130  0.00  0.00     0.000 C
ATOM     34  C4  BGC B   3      64.796  60.528  34.7240  0.00  0.00     0.000 C
ATOM     35  C5  BGC B   3      63.865  61.467  33.9760  0.00  0.00     0.000 C
ATOM     36  O5  BGC B   3      64.292  62.818  34.1730  0.00  0.00     0.000 O
ATOM     37   O  BGC B   3      67.895  62.465  33.9310  0.00  0.00     0.000 O
ATOM     39  HD  BGC B   3      68.214  62.044  34.6170  0.00  0.00     0.000 HD
ATOM     39   O  BGC B   3      67.135  60.040  35.1370  0.00  0.00     0.000 O
ATOM     41  HD  BGC B   3      67.453  59.619  35.8240  0.00  0.00     0.000 HD
ATOM     41   C  BGC B   3      62.403  61.350  34.3910  0.00  0.00     0.000 C
ATOM     42   O  BGC B   3      62.269  61.594  35.7710  0.00  0.00     0.000 O
ATOM     44  HD  BGC B   3      62.587  61.172  36.4580  0.00  0.00     0.000 HD
BRANCH 31 44
ATOM     44  O4  BGC B   4      65.856  64.422  33.8530  0.00  0.00     0.000 O
BRANCH 44 48
ATOM     45  C1  BGC B   4      65.680  68.059  31.9700  0.00  0.00     0.000 C
ATOM     46  C2  BGC B   4      64.333  67.504  32.4130  0.00  0.00     0.000 C
ATOM     47  C3  BGC B   4      64.550  66.396  33.4140  0.00  0.00     0.000 C
ATOM     48  C4  BGC B   4      65.497  65.337  32.8380  0.00  0.00     0.000 C
ATOM     49  C5  BGC B   4      66.786  65.990  32.3230  0.00  0.00     0.000 C
ATOM     50  O5  BGC B   4      66.462  67.021  31.3780  0.00  0.00     0.000 O
ATOM     51   O  BGC B   4      63.548  68.544  33.0260  0.00  0.00     0.000 O
ATOM     53  HD  BGC B   4      63.812  68.132  33.7400  0.00  0.00     0.000 HD
ATOM     53   O  BGC B   4      63.283  65.796  33.7210  0.00  0.00     0.000 O
ATOM     55  HD  BGC B   4      63.547  65.384  34.4360  0.00  0.00     0.000 HD
ATOM     55   C  BGC B   4      67.739  65.034  31.6280  0.00  0.00     0.000 C
ATOM     56   O  BGC B   4      67.018  64.387  30.5780  0.00  0.00     0.000 O
ATOM     58  HD  BGC B   4      67.282  63.976  31.2930  0.00  0.00     0.000 HD
BRANCH 45 58
ATOM     58  O4  BGC B   5      65.406  68.905  30.8540  0.00  0.00     0.000 O
BRANCH 58 62
ATOM     59  C1  BGC B   5      66.225  72.684  29.3730  0.00  0.00     0.000 C
ATOM     60  C2  BGC B   5      67.335  71.666  29.2060  0.00  0.00     0.000 C
ATOM     61  C3  BGC B   5      66.799  70.259  29.3880  0.00  0.00     0.000 C
ATOM     62  C4  BGC B   5      66.087  70.156  30.7270  0.00  0.00     0.000 C
ATOM     63  C5  BGC B   5      65.032  71.262  30.8660  0.00  0.00     0.000 C
ATOM     64  O5  BGC B   5      65.662  72.525  30.6790  0.00  0.00     0.000 O
ATOM     65   O  BGC B   5      65.409  71.427  33.1740  0.00  0.00     0.000 O
ATOM     67  HD  BGC B   5      65.728  70.976  33.8410  0.00  0.00     0.000 HD
ATOM     67   O  BGC B   5      65.409  71.427  33.1740  0.00  0.00     0.000 O
ATOM     69  HD  BGC B   5      65.728  70.976  33.8410  0.00  0.00     0.000 HD
ENDBRANCH 58 62
ENDBRANCH 45 58
ENDBRANCH 44 48
ENDBRANCH 31 44
ENDBRANCH 30 34
ENDBRANCH 17 30
ENDBRANCH 16 20
ENDBRANCH 1 16
TORSDOF 8
ENDMDL
MODEL 77
REMARK VINA RESULT:      -0.1     33.762     36.716
ROOT
ATOM      1  C1  BGC B   1       8.137  34.854  30.3980  0.00  0.00     0.000 C
ATOM      2  C2  BGC B   1       8.202  35.707  31.6640  0.00  0.00     0.000 C
ATOM      3  C3  BGC B   1       6.966  35.476  32.5120  0.00  0.00     0.000 C
ATOM      4  C4  BGC B   1       5.701  35.664  31.6840  0.00  0.00     0.000 C
ATOM      5  C5  BGC B   1       5.776  34.743  30.4750  0.00  0.00     0.000 C
ATOM      6  O5  BGC B   1       6.928  35.135  29.7060  0.00  0.00     0.000 O
ATOM      7   O  BGC B   1       9.369  35.344  32.4190  0.00  0.00     0.000 O
ATOM      9  HD  BGC B   1       9.345  35.458  33.2770  0.00  0.00     0.000 HD
ATOM      9   O  BGC B   1       6.990  36.382  33.6190  0.00  0.00     0.000 O
ATOM     11  HD  BGC B   1       6.966  36.497  34.4770  0.00  0.00     0.000 HD
ATOM     11   O  BGC B   1       4.572  35.342  32.4650  0.00  0.00     0.000 O
ATOM     13  HD  BGC B   1       4.548  35.456  33.3230  0.00  0.00     0.000 HD
ATOM     13   C  BGC B   1       4.554  34.779  29.5680  0.00  0.00     0.000 C
ATOM     14   O  BGC B   1       4.253  36.096  29.1160  0.00  0.00     0.000 O
ATOM     16  HD  BGC B   1       4.229  36.211  29.9740  0.00  0.00     0.000 HD
ENDROOT
BRANCH 1 16
ATOM     16  O4  BGC B   2       9.174  35.330  29.5430  0.00  0.00     0.000 O
BRANCH 16 20
ATOM     17  C1  BGC B   2      11.818  34.055  26.7280  0.00  0.00     0.000 C
ATOM     18  C2  BGC B   2      10.388  34.164  26.2190  0.00  0.00     0.000 C
ATOM     19  C3  BGC B   2       9.577  34.981  27.2220  0.00  0.00     0.000 C
ATOM     20  C4  BGC B   2       9.701  34.389  28.6110  0.00  0.00     0.000 C
ATOM     21  C5  BGC B   2      11.155  34.121  29.0030  0.00  0.00     0.000 C
ATOM     22  O5  BGC B   2      11.767  33.334  27.9730  0.00  0.00     0.000 O
ATOM     23   O  BGC B   2      10.366  34.828  24.9450  0.00  0.00     0.000 O
ATOM     25  HD  BGC B   2      10.180  35.080  25.7520  0.00  0.00     0.000 HD
ATOM     25   O  BGC B   2       8.212  35.021  26.8240  0.00  0.00     0.000 O
ATOM     27  HD  BGC B   2       8.025  35.273  27.6310  0.00  0.00     0.000 HD
ATOM     27   C  BGC B   2      11.286  33.354  30.3130  0.00  0.00     0.000 C
ATOM     28   O  BGC B   2      10.587  32.120  30.3140  0.00  0.00     0.000 O
ATOM     30  HD  BGC B   2      10.400  32.372  31.1210  0.00  0.00     0.000 HD
BRANCH 17 30
ATOM     30  O4  BGC B   3      12.506  33.201  25.8340  0.00  0.00     0.000 O
BRANCH 30 34
ATOM     31  C1  BGC B   3      16.283  32.630  24.3060  0.00  0.00     0.000 C
ATOM     32  C2  BGC B   3      16.125  32.231  25.7730  0.00  0.00     0.000 C
ATOM     33  C3  BGC B   3      14.645  32.108  26.0920  0.00  0.00     0.000 C
ATOM     34  C4  BGC B   3      13.919  33.406  25.7410  0.00  0.00     0.000 C
ATOM     35  C5  BGC B   3      14.235  33.820  24.3150  0.00  0.00     0.000 C
ATOM     36  O5  BGC B   3      15.654  33.891  24.1430  0.00  0.00     0.000 O
ATOM     37   O  BGC B   3      16.740  30.963  25.9900  0.00  0.00     0.000 O
ATOM     39  HD  BGC B   3      16.628  31.073  26.8410  0.00  0.00     0.000 HD
ATOM     39   O  BGC B   3      14.506  31.813  27.4740  0.00  0.00     0.000 O
ATOM     41  HD  BGC B   3      14.394  31.923  28.3250  0.00  0.00     0.000 HD
ATOM     41   C  BGC B   3      13.625  35.156  23.9070  0.00  0.00     0.000 C
ATOM     42   O  BGC B   3      14.062  36.174  24.7760  0.00  0.00     0.000 O
ATOM     44  HD  BGC B   3      13.950  36.284  25.6280  0.00  0.00     0.000 HD
BRANCH 31 44
ATOM     44  O4  BGC B   4      17.653  32.833  24.0760  0.00  0.00     0.000 O
BRANCH 44 48
ATOM     45  C1  BGC B   4      20.458  32.497  21.1060  0.00  0.00     0.000 C
ATOM     46  C2  BGC B   4      19.518  33.685  20.9630  0.00  0.00     0.000 C
ATOM     47  C3  BGC B   4      18.814  33.930  22.2750  0.00  0.00     0.000 C
ATOM     48  C4  BGC B   4      18.125  32.650  22.7570  0.00  0.00     0.000 C
ATOM     49  C5  BGC B   4      19.115  31.479  22.7750  0.00  0.00     0.000 C
ATOM     50  O5  BGC B   4      19.719  31.334  21.4810  0.00  0.00     0.000 O
ATOM     51   O  BGC B   4      20.262  34.863  20.6010  0.00  0.00     0.000 O
ATOM     53  HD  BGC B   4      20.143  35.030  21.4430  0.00  0.00     0.000 HD
ATOM     53   O  BGC B   4      17.838  34.966  22.0900  0.00  0.00     0.000 O
ATOM     55  HD  BGC B   4      17.719  35.132  22.9320  0.00  0.00     0.000 HD
ATOM     55   C  BGC B   4      18.496  30.139  23.1290  0.00  0.00     0.000 C
ATOM     56   O  BGC B   4      17.418  29.904  22.2210  0.00  0.00     0.000 O
ATOM     58  HD  BGC B   4      17.298  30.071  23.0620  0.00  0.00     0.000 HD
BRANCH 45 58
ATOM     58  O4  BGC B   5      20.881  32.171  19.7820  0.00  0.00     0.000 O
BRANCH 58 62
ATOM     59  C1  BGC B   5      24.294  31.379  17.5750  0.00  0.00     0.000 C
ATOM     60  C2  BGC B   5      23.785  30.229  18.4210  0.00  0.00     0.000 C
ATOM     61  C3  BGC B   5      22.349  30.473  18.8430  0.00  0.00     0.000 C
ATOM     62  C4  BGC B   5      22.245  31.821  19.5380  0.00  0.00     0.000 C
ATOM     63  C5  BGC B   5      22.849  32.929  18.6640  0.00  0.00     0.000 C
ATOM     64  O5  BGC B   5      24.192  32.582  18.3440  0.00  0.00     0.000 O
ATOM     65   O  BGC B   5      23.611  34.096  20.5490  0.00  0.00     0.000 O
ATOM     67  HD  BGC B   5      23.467  34.175  21.3990  0.00  0.00     0.000 HD
ATOM     67   O  BGC B   5      23.611  34.096  20.5490  0.00  0.00     0.000 O
ATOM     69  HD  BGC B   5      23.467  34.175  21.3990  0.00  0.00     0.000 HD
ENDBRANCH 58 62
ENDBRANCH 45 58
ENDBRANCH 44 48
ENDBRANCH 31 44
ENDBRANCH 30 34
ENDBRANCH 17 30
ENDBRANCH 16 20
ENDBRANCH 1 16
TORSDOF 8
ENDMDL
MODEL 78
REMARK VINA RESULT:      -0.1     61.322     66.239
ROOT
ATOM      1  C1  BGC B   1      21.710  65.257  33.3020  0.00  0.00     0.000 C
ATOM      2  C2  BGC B   1      22.582  66.267  32.5570  0.00  0.00     0.000 C
ATOM      3  C3  BGC B   1      24.004  66.216  33.0810  0.00  0.00     0.000 C
ATOM      4  C4  BGC B   1      24.024  66.356  34.5980  0.00  0.00     0.000 C
ATOM      5  C5  BGC B   1      23.129  65.279  35.1940  0.00  0.00     0.000 C
ATOM      6  O5  BGC B   1      21.796  65.505  34.6980  0.00  0.00     0.000 O
ATOM      7   O  BGC B   1      22.583  65.948  31.1550  0.00  0.00     0.000 O
ATOM      9  HD  BGC B   1      23.277  66.177  30.6910  0.00  0.00     0.000 HD
ATOM      9   O  BGC B   1      24.763  67.259  32.4630  0.00  0.00     0.000 O
ATOM     11  HD  BGC B   1      25.457  67.488  31.9980  0.00  0.00     0.000 HD
ATOM     11   O  BGC B   1      25.344  66.200  35.0710  0.00  0.00     0.000 O
ATOM     13  HD  BGC B   1      26.038  66.429  34.6060  0.00  0.00     0.000 HD
ATOM     13   C  BGC B   1      23.081  65.257  36.7150  0.00  0.00     0.000 C
ATOM     14   O  BGC B   1      22.703  66.515  37.2640  0.00  0.00     0.000 O
ATOM     16  HD  BGC B   1      23.397  66.745  36.8000  0.00  0.00     0.000 HD
ENDROOT
BRANCH 1 16
ATOM     16  O4  BGC B   2      20.361  65.561  32.9520  0.00  0.00     0.000 O
BRANCH 16 20
ATOM     17  C1  BGC B   2      16.759  63.787  32.3090  0.00  0.00     0.000 C
ATOM     18  C2  BGC B   2      17.149  63.864  33.7780  0.00  0.00     0.000 C
ATOM     19  C3  BGC B   2      18.306  64.850  33.9210  0.00  0.00     0.000 C
ATOM     20  C4  BGC B   2      19.442  64.472  32.9930  0.00  0.00     0.000 C
ATOM     21  C5  BGC B   2      18.967  64.219  31.5620  0.00  0.00     0.000 C
ATOM     22  O5  BGC B   2      17.898  63.266  31.5980  0.00  0.00     0.000 O
ATOM     23   O  BGC B   2      16.036  64.328  34.5600  0.00  0.00     0.000 O
ATOM     25  HD  BGC B   2      16.759  64.705  34.2690  0.00  0.00     0.000 HD
ATOM     25   O  BGC B   2      18.758  64.874  35.2700  0.00  0.00     0.000 O
ATOM     27  HD  BGC B   2      19.481  65.251  34.9790  0.00  0.00     0.000 HD
ATOM     27   C  BGC B   2      20.061  63.657  30.6630  0.00  0.00     0.000 C
ATOM     28   O  BGC B   2      20.637  62.460  31.1620  0.00  0.00     0.000 O
ATOM     30  HD  BGC B   2      21.360  62.838  30.8710  0.00  0.00     0.000 HD
BRANCH 17 30
ATOM     30  O4  BGC B   3      15.766  62.785  32.2010  0.00  0.00     0.000 O
BRANCH 30 34
ATOM     31  C1  BGC B   3      12.447  61.870  29.9490  0.00  0.00     0.000 C
ATOM     32  C2  BGC B   3      13.776  61.723  29.2090  0.00  0.00     0.000 C
ATOM     33  C3  BGC B   3      14.903  61.694  30.2260  0.00  0.00     0.000 C
ATOM     34  C4  BGC B   3      14.845  62.935  31.1160  0.00  0.00     0.000 C
ATOM     35  C5  BGC B   3      13.456  63.098  31.7050  0.00  0.00     0.000 C
ATOM     36  O5  BGC B   3      12.488  63.103  30.6500  0.00  0.00     0.000 O
ATOM     37   O  BGC B   3      13.785  60.493  28.4880  0.00  0.00     0.000 O
ATOM     39  HD  BGC B   3      14.517  60.746  28.1000  0.00  0.00     0.000 HD
ATOM     39   O  BGC B   3      16.138  61.636  29.5260  0.00  0.00     0.000 O
ATOM     41  HD  BGC B   3      16.870  61.888  29.1390  0.00  0.00     0.000 HD
ATOM     41   C  BGC B   3      13.280  64.364  32.5360  0.00  0.00     0.000 C
ATOM     42   O  BGC B   3      13.572  65.500  31.7580  0.00  0.00     0.000 O
ATOM     44  HD  BGC B   3      14.304  65.752  31.3700  0.00  0.00     0.000 HD
BRANCH 31 44
ATOM     44  O4  BGC B   4      11.441  61.997  28.9770  0.00  0.00     0.000 O
BRANCH 44 48
ATOM     45  C1  BGC B   4       7.490  61.095  28.3610  0.00  0.00     0.000 C
ATOM     46  C2  BGC B   4       7.738  62.273  29.2940  0.00  0.00     0.000 C
ATOM     47  C3  BGC B   4       9.160  62.750  29.1340  0.00  0.00     0.000 C
ATOM     48  C4  BGC B   4      10.137  61.587  29.3340  0.00  0.00     0.000 C
ATOM     49  C5  BGC B   4       9.758  60.404  28.4330  0.00  0.00     0.000 C
ATOM     50  O5  BGC B   4       8.393  60.032  28.6710  0.00  0.00     0.000 O
ATOM     51   O  BGC B   4       6.841  63.353  28.9730  0.00  0.00     0.000 O
ATOM     53  HD  BGC B   4       7.561  63.657  28.6000  0.00  0.00     0.000 HD
ATOM     53   O  BGC B   4       9.417  63.771  30.1090  0.00  0.00     0.000 O
ATOM     55  HD  BGC B   4      10.137  64.075  29.7360  0.00  0.00     0.000 HD
ATOM     55   C  BGC B   4      10.601  59.159  28.6450  0.00  0.00     0.000 C
ATOM     56   O  BGC B   4      10.527  58.814  30.0300  0.00  0.00     0.000 O
ATOM     58  HD  BGC B   4      11.247  59.118  29.6570  0.00  0.00     0.000 HD
BRANCH 45 58
ATOM     58  O4  BGC B   5       6.232  60.546  28.7510  0.00  0.00     0.000 O
BRANCH 58 62
ATOM     59  C1  BGC B   5       2.622  59.269  27.1740  0.00  0.00     0.000 C
ATOM     60  C2  BGC B   5       3.779  58.305  27.0110  0.00  0.00     0.000 C
ATOM     61  C3  BGC B   5       4.908  58.663  27.9590  0.00  0.00     0.000 C
ATOM     62  C4  BGC B   5       5.304  60.116  27.7520  0.00  0.00     0.000 C
ATOM     63  C5  BGC B   5       4.075  61.031  27.8500  0.00  0.00     0.000 C
ATOM     64  O5  BGC B   5       3.098  60.593  26.9120  0.00  0.00     0.000 O
ATOM     65   O  BGC B   5       4.950  62.494  26.2400  0.00  0.00     0.000 O
ATOM     67  HD  BGC B   5       5.699  62.729  25.8750  0.00  0.00     0.000 HD
ATOM     67   O  BGC B   5       4.950  62.494  26.2400  0.00  0.00     0.000 O
ATOM     69  HD  BGC B   5       5.699  62.729  25.8750  0.00  0.00     0.000 HD
ENDBRANCH 58 62
ENDBRANCH 45 58
ENDBRANCH 44 48
ENDBRANCH 31 44
ENDBRANCH 30 34
ENDBRANCH 17 30
ENDBRANCH 16 20
ENDBRANCH 1 16
TORSDOF 8
ENDMDL
MODEL 79
REMARK VINA RESULT:      -0.1     49.407     51.560
ROOT
ATOM      1  C1  BGC B   1      19.364  51.932  22.5510  0.00  0.00     0.000 C
ATOM      2  C2  BGC B   1      19.462  52.081  21.0330  0.00  0.00     0.000 C
ATOM      3  C3  BGC B   1      18.469  53.119  20.5470  0.00  0.00     0.000 C
ATOM      4  C4  BGC B   1      17.070  52.812  21.0670  0.00  0.00     0.000 C
ATOM      5  C5  BGC B   1      17.132  52.710  22.5830  0.00  0.00     0.000 C
ATOM      6  O5  BGC B   1      18.023  51.627  22.9060  0.00  0.00     0.000 O
ATOM      7   O  BGC B   1      20.792  52.499  20.6840  0.00  0.00     0.000 O
ATOM      9  HD  BGC B   1      20.892  52.957  19.9560  0.00  0.00     0.000 HD
ATOM      9   O  BGC B   1      18.488  53.142  19.1170  0.00  0.00     0.000 O
ATOM     11  HD  BGC B   1      18.588  53.601  18.3890  0.00  0.00     0.000 HD
ATOM     11   O  BGC B   1      16.187  53.846  20.6900  0.00  0.00     0.000 O
ATOM     13  HD  BGC B   1      16.287  54.305  19.9620  0.00  0.00     0.000 HD
ATOM     13   C  BGC B   1      15.793  52.452  23.2610  0.00  0.00     0.000 C
ATOM     14   O  BGC B   1      15.143  51.291  22.7540  0.00  0.00     0.000 O
ATOM     16  HD  BGC B   1      15.243  51.749  22.0270  0.00  0.00     0.000 HD
ENDROOT
BRANCH 1 16
ATOM     16  O4  BGC B   2      20.113  50.765  22.8850  0.00  0.00     0.000 O
BRANCH 16 20
ATOM     17  C1  BGC B   2      22.469  49.224  25.8190  0.00  0.00     0.000 C
ATOM     18  C2  BGC B   2      20.987  49.228  26.1640  0.00  0.00     0.000 C
ATOM     19  C3  BGC B   2      20.192  49.474  24.8840  0.00  0.00     0.000 C
ATOM     20  C4  BGC B   2      20.675  50.733  24.1940  0.00  0.00     0.000 C
ATOM     21  C5  BGC B   2      22.196  50.767  24.0410  0.00  0.00     0.000 C
ATOM     22  O5  BGC B   2      22.789  50.538  25.3250  0.00  0.00     0.000 O
ATOM     23   O  BGC B   2      20.606  47.958  26.7180  0.00  0.00     0.000 O
ATOM     25  HD  BGC B   2      20.504  48.324  25.9400  0.00  0.00     0.000 HD
ATOM     25   O  BGC B   2      18.806  49.579  25.1870  0.00  0.00     0.000 O
ATOM     27  HD  BGC B   2      18.705  49.945  24.4090  0.00  0.00     0.000 HD
ATOM     27   C  BGC B   2      22.711  52.104  23.5240  0.00  0.00     0.000 C
ATOM     28   O  BGC B   2      22.317  53.207  24.3240  0.00  0.00     0.000 O
ATOM     30  HD  BGC B   2      22.216  53.573  23.5460  0.00  0.00     0.000 HD
BRANCH 17 30
ATOM     30  O4  BGC B   3      23.173  49.108  27.0410  0.00  0.00     0.000 O
BRANCH 30 34
ATOM     31  C1  BGC B   3      26.675  47.531  28.5180  0.00  0.00     0.000 C
ATOM     32  C2  BGC B   3      26.856  48.775  27.6490  0.00  0.00     0.000 C
ATOM     33  C3  BGC B   3      25.515  49.475  27.5070  0.00  0.00     0.000 C
ATOM     34  C4  BGC B   3      24.469  48.506  26.9580  0.00  0.00     0.000 C
ATOM     35  C5  BGC B   3      24.443  47.232  27.7840  0.00  0.00     0.000 C
ATOM     36  O5  BGC B   3      25.761  46.678  27.8470  0.00  0.00     0.000 O
ATOM     37   O  BGC B   3      27.767  49.670  28.2830  0.00  0.00     0.000 O
ATOM     39  HD  BGC B   3      27.776  50.147  27.5600  0.00  0.00     0.000 HD
ATOM     39   O  BGC B   3      25.677  50.584  26.6360  0.00  0.00     0.000 O
ATOM     41  HD  BGC B   3      25.686  51.061  25.9130  0.00  0.00     0.000 HD
ATOM     41   C  BGC B   3      23.489  46.168  27.2520  0.00  0.00     0.000 C
ATOM     42   O  BGC B   3      23.825  45.834  25.9260  0.00  0.00     0.000 O
ATOM     44  HD  BGC B   3      23.834  46.311  25.2040  0.00  0.00     0.000 HD
BRANCH 31 44
ATOM     44  O4  BGC B   4      27.907  46.858  28.5410  0.00  0.00     0.000 O
BRANCH 44 48
ATOM     45  C1  BGC B   4      30.186  44.491  30.9930  0.00  0.00     0.000 C
ATOM     46  C2  BGC B   4      28.989  43.792  30.3640  0.00  0.00     0.000 C
ATOM     47  C3  BGC B   4      28.475  44.616  29.2090  0.00  0.00     0.000 C
ATOM     48  C4  BGC B   4      28.184  46.049  29.6660  0.00  0.00     0.000 C
ATOM     49  C5  BGC B   4      29.403  46.645  30.3800  0.00  0.00     0.000 C
ATOM     50  O5  BGC B   4      29.802  45.786  31.4580  0.00  0.00     0.000 O
ATOM     51   O  BGC B   4      29.377  42.492  29.8780  0.00  0.00     0.000 O
ATOM     53  HD  BGC B   4      29.363  42.921  29.1260  0.00  0.00     0.000 HD
ATOM     53   O  BGC B   4      27.272  44.013  28.7100  0.00  0.00     0.000 O
ATOM     55  HD  BGC B   4      27.259  44.442  27.9580  0.00  0.00     0.000 HD
ATOM     55   C  BGC B   4      29.172  48.023  30.9730  0.00  0.00     0.000 C
ATOM     56   O  BGC B   4      28.041  47.939  31.8410  0.00  0.00     0.000 O
ATOM     58  HD  BGC B   4      28.027  48.368  31.0890  0.00  0.00     0.000 HD
BRANCH 45 58
ATOM     58  O4  BGC B   5      30.447  43.798  32.2130  0.00  0.00     0.000 O
BRANCH 58 62
ATOM     59  C1  BGC B   5      33.538  42.078  34.3650  0.00  0.00     0.000 C
ATOM     60  C2  BGC B   5      33.455  43.589  34.4420  0.00  0.00     0.000 C
ATOM     61  C3  BGC B   5      32.091  44.071  33.9870  0.00  0.00     0.000 C
ATOM     62  C4  BGC B   5      31.796  43.524  32.5990  0.00  0.00     0.000 C
ATOM     63  C5  BGC B   5      31.975  41.999  32.5690  0.00  0.00     0.000 C
ATOM     64  O5  BGC B   5      33.291  41.682  33.0130  0.00  0.00     0.000 O
ATOM     65   O  BGC B   5      32.748  42.065  30.3570  0.00  0.00     0.000 O
ATOM     67  HD  BGC B   5      32.733  42.564  29.6490  0.00  0.00     0.000 HD
ATOM     67   O  BGC B   5      32.748  42.065  30.3570  0.00  0.00     0.000 O
ATOM     69  HD  BGC B   5      32.733  42.564  29.6490  0.00  0.00     0.000 HD
ENDBRANCH 58 62
ENDBRANCH 45 58
ENDBRANCH 44 48
ENDBRANCH 31 44
ENDBRANCH 30 34
ENDBRANCH 17 30
ENDBRANCH 16 20
ENDBRANCH 1 16
TORSDOF 8
ENDMDL
MODEL 80
REMARK VINA RESULT:      -0.1     50.618     52.778
ROOT
ATOM      1  C1  BGC B   1      18.723  53.550  22.5310  0.00  0.00     0.000 C
ATOM      2  C2  BGC B   1      18.870  53.577  21.0100  0.00  0.00     0.000 C
ATOM      3  C3  BGC B   1      17.996  54.668  20.4220  0.00  0.00     0.000 C
ATOM      4  C4  BGC B   1      16.562  54.538  20.9200  0.00  0.00     0.000 C
ATOM      5  C5  BGC B   1      16.578  54.542  22.4420  0.00  0.00     0.000 C
ATOM      6  O5  BGC B   1      17.350  53.404  22.8670  0.00  0.00     0.000 O
ATOM      7   O  BGC B   1      20.242  53.836  20.6720  0.00  0.00     0.000 O
ATOM      9  HD  BGC B   1      20.404  54.228  19.9170  0.00  0.00     0.000 HD
ATOM      9   O  BGC B   1      18.050  54.584  18.9950  0.00  0.00     0.000 O
ATOM     11  HD  BGC B   1      18.211  54.976  18.2400  0.00  0.00     0.000 HD
ATOM     11   O  BGC B   1      15.795  55.623  20.4440  0.00  0.00     0.000 O
ATOM     13  HD  BGC B   1      15.956  56.014  19.6890  0.00  0.00     0.000 HD
ATOM     13   C  BGC B   1      15.206  54.467  23.0950  0.00  0.00     0.000 C
ATOM     14   O  BGC B   1      14.456  53.340  22.6530  0.00  0.00     0.000 O
ATOM     16  HD  BGC B   1      14.617  53.732  21.8980  0.00  0.00     0.000 HD
ENDROOT
BRANCH 1 16
ATOM     16  O4  BGC B   2      19.344  52.344  22.9690  0.00  0.00     0.000 O
BRANCH 16 20
ATOM     17  C1  BGC B   2      21.468  50.801  26.0750  0.00  0.00     0.000 C
ATOM     18  C2  BGC B   2      19.986  50.974  26.3740  0.00  0.00     0.000 C
ATOM     19  C3  BGC B   2      19.249  51.202  25.0570  0.00  0.00     0.000 C
ATOM     20  C4  BGC B   2      19.870  52.354  24.2940  0.00  0.00     0.000 C
ATOM     21  C5  BGC B   2      21.390  52.228  24.1840  0.00  0.00     0.000 C
ATOM     22  O5  BGC B   2      21.928  52.037  25.4990  0.00  0.00     0.000 O
ATOM     23   O  BGC B   2      19.468  49.792  27.0050  0.00  0.00     0.000 O
ATOM     25  HD  BGC B   2      19.421  50.108  26.2000  0.00  0.00     0.000 HD
ATOM     25   O  BGC B   2      17.873  51.463  25.3100  0.00  0.00     0.000 O
ATOM     27  HD  BGC B   2      17.827  51.779  24.5050  0.00  0.00     0.000 HD
ATOM     27   C  BGC B   2      22.047  53.467  23.5890  0.00  0.00     0.000 C
ATOM     28   O  BGC B   2      21.747  54.658  24.2970  0.00  0.00     0.000 O
ATOM     30  HD  BGC B   2      21.700  54.975  23.4930  0.00  0.00     0.000 HD
BRANCH 17 30
ATOM     30  O4  BGC B   3      22.129  50.707  27.3230  0.00  0.00     0.000 O
BRANCH 30 34
ATOM     31  C1  BGC B   3      25.422  48.910  29.0120  0.00  0.00     0.000 C
ATOM     32  C2  BGC B   3      25.745  50.063  28.0630  0.00  0.00     0.000 C
ATOM     33  C3  BGC B   3      24.485  50.877  27.8310  0.00  0.00     0.000 C
ATOM     34  C4  BGC B   3      23.360  49.977  27.3210  0.00  0.00     0.000 C
ATOM     35  C5  BGC B   3      23.189  48.776  28.2350  0.00  0.00     0.000 C
ATOM     36  O5  BGC B   3      24.444  48.102  28.3760  0.00  0.00     0.000 O
ATOM     37   O  BGC B   3      26.726  50.909  28.6590  0.00  0.00     0.000 O
ATOM     39  HD  BGC B   3      26.799  51.328  27.9040  0.00  0.00     0.000 HD
ATOM     39   O  BGC B   3      24.775  51.898  26.8890  0.00  0.00     0.000 O
ATOM     41  HD  BGC B   3      24.848  52.318  26.1350  0.00  0.00     0.000 HD
ATOM     41   C  BGC B   3      22.147  47.773  27.7520  0.00  0.00     0.000 C
ATOM     42   O  BGC B   3      22.478  47.312  26.4630  0.00  0.00     0.000 O
ATOM     44  HD  BGC B   3      22.551  47.731  25.7090  0.00  0.00     0.000 HD
BRANCH 31 44
ATOM     44  O4  BGC B   4      26.580  48.123  29.1200  0.00  0.00     0.000 O
BRANCH 44 48
ATOM     45  C1  BGC B   4      28.556  45.733  31.8010  0.00  0.00     0.000 C
ATOM     46  C2  BGC B   4      27.311  45.109  31.1870  0.00  0.00     0.000 C
ATOM     47  C3  BGC B   4      26.908  45.892  29.9620  0.00  0.00     0.000 C
ATOM     48  C4  BGC B   4      26.750  47.376  30.3080  0.00  0.00     0.000 C
ATOM     49  C5  BGC B   4      28.006  47.902  31.0130  0.00  0.00     0.000 C
ATOM     50  O5  BGC B   4      28.292  47.090  32.1610  0.00  0.00     0.000 O
ATOM     51   O  BGC B   4      27.578  43.746  30.8070  0.00  0.00     0.000 O
ATOM     53  HD  BGC B   4      27.625  44.117  30.0270  0.00  0.00     0.000 HD
ATOM     53   O  BGC B   4      25.663  45.374  29.4720  0.00  0.00     0.000 O
ATOM     55  HD  BGC B   4      25.709  45.746  28.6910  0.00  0.00     0.000 HD
ATOM     55   C  BGC B   4      27.898  49.336  31.4990  0.00  0.00     0.000 C
ATOM     56   O  BGC B   4      26.745  49.426  32.3380  0.00  0.00     0.000 O
ATOM     58  HD  BGC B   4      26.792  49.798  31.5570  0.00  0.00     0.000 HD
BRANCH 45 58
ATOM     58  O4  BGC B   5      28.719  45.109  33.0750  0.00  0.00     0.000 O
BRANCH 58 62
ATOM     59  C1  BGC B   5      31.575  43.259  35.4350  0.00  0.00     0.000 C
ATOM     60  C2  BGC B   5      31.640  44.773  35.4020  0.00  0.00     0.000 C
ATOM     61  C3  BGC B   5      30.341  45.350  34.8730  0.00  0.00     0.000 C
ATOM     62  C4  BGC B   5      30.025  44.734  33.5190  0.00  0.00     0.000 C
ATOM     63  C5  BGC B   5      30.053  43.201  33.6030  0.00  0.00     0.000 C
ATOM     64  O5  BGC B   5      31.320  42.791  34.1070  0.00  0.00     0.000 O
ATOM     65   O  BGC B   5      30.879  43.028  31.4160  0.00  0.00     0.000 O
ATOM     67  HD  BGC B   5      30.929  43.473  30.6740  0.00  0.00     0.000 HD
ATOM     67   O  BGC B   5      30.879  43.028  31.4160  0.00  0.00     0.000 O
ATOM     69  HD  BGC B   5      30.929  43.473  30.6740  0.00  0.00     0.000 HD
ENDBRANCH 58 62
ENDBRANCH 45 58
ENDBRANCH 44 48
ENDBRANCH 31 44
ENDBRANCH 30 34
ENDBRANCH 17 30
ENDBRANCH 16 20
ENDBRANCH 1 16
TORSDOF 8
ENDMDL
MODEL 81
REMARK VINA RESULT:      -0.1     59.179     62.410
ROOT
ATOM      1  C1  BGC B   1      24.358  28.484  58.1500  0.00  0.00     0.000 C
ATOM      2  C2  BGC B   1      23.628  29.489  57.2610  0.00  0.00     0.000 C
ATOM      3  C3  BGC B   1      22.179  29.610  57.6930  0.00  0.00     0.000 C
ATOM      4  C4  BGC B   1      21.523  28.237  57.7720  0.00  0.00     0.000 C
ATOM      5  C5  BGC B   1      22.352  27.360  58.7000  0.00  0.00     0.000 C
ATOM      6  O5  BGC B   1      23.665  27.244  58.1230  0.00  0.00     0.000 O
ATOM      7   O  BGC B   1      24.264  30.772  57.3750  0.00  0.00     0.000 O
ATOM      9  HD  BGC B   1      23.778  31.476  57.2400  0.00  0.00     0.000 HD
ATOM      9   O  BGC B   1      21.489  30.452  56.7650  0.00  0.00     0.000 O
ATOM     11  HD  BGC B   1      21.003  31.156  56.6300  0.00  0.00     0.000 HD
ATOM     11   O  BGC B   1      20.212  28.367  58.2760  0.00  0.00     0.000 O
ATOM     13  HD  BGC B   1      19.726  29.071  58.1410  0.00  0.00     0.000 HD
ATOM     13   C  BGC B   1      21.795  25.961  58.9220  0.00  0.00     0.000 C
ATOM     14   O  BGC B   1      21.589  25.259  57.7000  0.00  0.00     0.000 O
ATOM     16  HD  BGC B   1      21.103  25.963  57.5650  0.00  0.00     0.000 HD
ENDROOT
BRANCH 1 16
ATOM     16  O4  BGC B   2      25.609  28.226  57.5150  0.00  0.00     0.000 O
BRANCH 16 20
ATOM     17  C1  BGC B   2      29.498  27.387  58.3570  0.00  0.00     0.000 C
ATOM     18  C2  BGC B   2      28.558  26.211  58.5730  0.00  0.00     0.000 C
ATOM     19  C3  BGC B   2      27.227  26.521  57.8920  0.00  0.00     0.000 C
ATOM     20  C4  BGC B   2      26.683  27.850  58.3730  0.00  0.00     0.000 C
ATOM     21  C5  BGC B   2      27.728  28.964  58.3120  0.00  0.00     0.000 C
ATOM     22  O5  BGC B   2      28.903  28.526  59.0070  0.00  0.00     0.000 O
ATOM     23   O  BGC B   2      29.117  25.019  57.9950  0.00  0.00     0.000 O
ATOM     25  HD  BGC B   2      28.495  25.569  57.7460  0.00  0.00     0.000 HD
ATOM     25   O  BGC B   2      26.293  25.481  58.1570  0.00  0.00     0.000 O
ATOM     27  HD  BGC B   2      25.672  26.030  57.9080  0.00  0.00     0.000 HD
ATOM     27   C  BGC B   2      27.257  30.257  58.9670  0.00  0.00     0.000 C
ATOM     28   O  BGC B   2      26.858  30.090  60.3180  0.00  0.00     0.000 O
ATOM     30  HD  BGC B   2      26.237  30.640  60.0690  0.00  0.00     0.000 HD
BRANCH 17 30
ATOM     30  O4  BGC B   3      30.674  27.113  59.0950  0.00  0.00     0.000 O
BRANCH 30 34
ATOM     31  C1  BGC B   3      34.722  27.835  58.9520  0.00  0.00     0.000 C
ATOM     32  C2  BGC B   3      33.869  29.063  59.2690  0.00  0.00     0.000 C
ATOM     33  C3  BGC B   3      32.482  28.604  59.6820  0.00  0.00     0.000 C
ATOM     34  C4  BGC B   3      31.874  27.715  58.5980  0.00  0.00     0.000 C
ATOM     35  C5  BGC B   3      32.835  26.598  58.2310  0.00  0.00     0.000 C
ATOM     36  O5  BGC B   3      34.101  27.159  57.8690  0.00  0.00     0.000 O
ATOM     37   O  BGC B   3      34.451  29.778  60.3560  0.00  0.00     0.000 O
ATOM     39  HD  BGC B   3      33.890  30.422  60.2120  0.00  0.00     0.000 HD
ATOM     39   O  BGC B   3      31.675  29.752  59.9000  0.00  0.00     0.000 O
ATOM     41  HD  BGC B   3      31.113  30.396  59.7550  0.00  0.00     0.000 HD
ATOM     41   C  BGC B   3      32.348  25.713  57.0890  0.00  0.00     0.000 C
ATOM     42   O  BGC B   3      32.106  26.491  55.9410  0.00  0.00     0.000 O
ATOM     44  HD  BGC B   3      31.545  27.134  55.7960  0.00  0.00     0.000 HD
BRANCH 31 44
ATOM     44  O4  BGC B   4      35.959  28.299  58.4770  0.00  0.00     0.000 O
BRANCH 44 48
ATOM     45  C1  BGC B   4      39.926  27.268  58.4130  0.00  0.00     0.000 C
ATOM     46  C2  BGC B   4      39.042  26.463  57.4700  0.00  0.00     0.000 C
ATOM     47  C3  BGC B   4      37.723  27.173  57.2880  0.00  0.00     0.000 C
ATOM     48  C4  BGC B   4      37.079  27.456  58.6490  0.00  0.00     0.000 C
ATOM     49  C5  BGC B   4      38.067  28.177  59.5740  0.00  0.00     0.000 C
ATOM     50  O5  BGC B   4      39.279  27.415  59.6780  0.00  0.00     0.000 O
ATOM     51   O  BGC B   4      39.684  26.328  56.1880  0.00  0.00     0.000 O
ATOM     53  HD  BGC B   4      39.114  26.949  55.9910  0.00  0.00     0.000 HD
ATOM     53   O  BGC B   4      36.855  26.342  56.5050  0.00  0.00     0.000 O
ATOM     55  HD  BGC B   4      36.285  26.963  56.3080  0.00  0.00     0.000 HD
ATOM     55   C  BGC B   4      37.558  28.397  60.9870  0.00  0.00     0.000 C
ATOM     56   O  BGC B   4      37.174  27.126  61.5140  0.00  0.00     0.000 O
ATOM     58  HD  BGC B   4      36.604  27.748  61.3170  0.00  0.00     0.000 HD
BRANCH 45 58
ATOM     58  O4  BGC B   5      41.028  26.420  58.7340  0.00  0.00     0.000 O
BRANCH 58 62
ATOM     59  C1  BGC B   5      45.163  26.422  58.9630  0.00  0.00     0.000 C
ATOM     60  C2  BGC B   5      44.448  27.104  60.1120  0.00  0.00     0.000 C
ATOM     61  C3  BGC B   5      42.989  26.692  60.1500  0.00  0.00     0.000 C
ATOM     62  C4  BGC B   5      42.348  26.966  58.7990  0.00  0.00     0.000 C
ATOM     63  C5  BGC B   5      43.164  26.316  57.6720  0.00  0.00     0.000 C
ATOM     64  O5  BGC B   5      44.505  26.786  57.7450  0.00  0.00     0.000 O
ATOM     65   O  BGC B   5      42.643  28.061  56.1960  0.00  0.00     0.000 O
ATOM     67  HD  BGC B   5      42.062  28.691  56.0710  0.00  0.00     0.000 HD
ATOM     67   O  BGC B   5      42.643  28.061  56.1960  0.00  0.00     0.000 O
ATOM     69  HD  BGC B   5      42.062  28.691  56.0710  0.00  0.00     0.000 HD
ENDBRANCH 58 62
ENDBRANCH 45 58
ENDBRANCH 44 48
ENDBRANCH 31 44
ENDBRANCH 30 34
ENDBRANCH 17 30
ENDBRANCH 16 20
ENDBRANCH 1 16
TORSDOF 8
ENDMDL
MODEL 82
REMARK VINA RESULT:      -0.1     83.779     91.190
ROOT
ATOM      1  C1  BGC B   1      72.353  43.455  52.3080  0.00  0.00     0.000 C
ATOM      2  C2  BGC B   1      73.301  42.482  51.6100  0.00  0.00     0.000 C
ATOM      3  C3  BGC B   1      73.547  42.928  50.1810  0.00  0.00     0.000 C
ATOM      4  C4  BGC B   1      72.227  43.162  49.4550  0.00  0.00     0.000 C
ATOM      5  C5  BGC B   1      71.405  44.158  50.2590  0.00  0.00     0.000 C
ATOM      6  O5  BGC B   1      71.157  43.569  51.5490  0.00  0.00     0.000 O
ATOM      7   O  BGC B   1      74.552  42.451  52.3170  0.00  0.00     0.000 O
ATOM      9  HD  BGC B   1      75.265  42.254  51.8660  0.00  0.00     0.000 HD
ATOM      9   O  BGC B   1      74.327  41.933  49.5130  0.00  0.00     0.000 O
ATOM     11  HD  BGC B   1      75.040  41.736  49.0620  0.00  0.00     0.000 HD
ATOM     11   O  BGC B   1      72.481  43.676  48.1660  0.00  0.00     0.000 O
ATOM     13  HD  BGC B   1      73.193  43.480  47.7150  0.00  0.00     0.000 HD
ATOM     13   C  BGC B   1      70.069  44.534  49.6350  0.00  0.00     0.000 C
ATOM     14   O  BGC B   1      69.259  43.395  49.3600  0.00  0.00     0.000 O
ATOM     16  HD  BGC B   1      69.971  43.198  48.9090  0.00  0.00     0.000 HD
ENDROOT
BRANCH 1 16
ATOM     16  O4  BGC B   2      71.961  42.824  53.5260  0.00  0.00     0.000 O
BRANCH 16 20
ATOM     17  C1  BGC B   2      70.988  43.673  57.3820  0.00  0.00     0.000 C
ATOM     18  C2  BGC B   2      69.888  44.007  56.3860  0.00  0.00     0.000 C
ATOM     19  C3  BGC B   2      70.210  43.322  55.0600  0.00  0.00     0.000 C
ATOM     20  C4  BGC B   2      71.604  43.694  54.5970  0.00  0.00     0.000 C
ATOM     21  C5  BGC B   2      72.650  43.519  55.6980  0.00  0.00     0.000 C
ATOM     22  O5  BGC B   2      72.210  44.230  56.8620  0.00  0.00     0.000 O
ATOM     23   O  BGC B   2      68.622  43.526  56.8690  0.00  0.00     0.000 O
ATOM     25  HD  BGC B   2      69.181  43.240  56.2720  0.00  0.00     0.000 HD
ATOM     25   O  BGC B   2      69.249  43.693  54.0780  0.00  0.00     0.000 O
ATOM     27  HD  BGC B   2      69.808  43.407  53.4810  0.00  0.00     0.000 HD
ATOM     27   C  BGC B   2      74.018  44.066  55.3100  0.00  0.00     0.000 C
ATOM     28   O  BGC B   2      73.991  45.432  54.9310  0.00  0.00     0.000 O
ATOM     30  HD  BGC B   2      74.550  45.146  54.3340  0.00  0.00     0.000 HD
BRANCH 17 30
ATOM     30  O4  BGC B   3      70.715  44.413  58.5570  0.00  0.00     0.000 O
BRANCH 30 34
ATOM     31  C1  BGC B   3      71.206  44.147  62.6330  0.00  0.00     0.000 C
ATOM     32  C2  BGC B   3      72.502  44.355  61.8510  0.00  0.00     0.000 C
ATOM     33  C3  BGC B   3      72.159  44.829  60.4490  0.00  0.00     0.000 C
ATOM     34  C4  BGC B   3      71.203  43.845  59.7770  0.00  0.00     0.000 C
ATOM     35  C5  BGC B   3      70.007  43.574  60.6730  0.00  0.00     0.000 C
ATOM     36  O5  BGC B   3      70.463  43.143  61.9600  0.00  0.00     0.000 O
ATOM     37   O  BGC B   3      73.287  45.360  62.4880  0.00  0.00     0.000 O
ATOM     39  HD  BGC B   3      73.942  45.162  61.9580  0.00  0.00     0.000 HD
ATOM     39   O  BGC B   3      73.363  44.945  59.7060  0.00  0.00     0.000 O
ATOM     41  HD  BGC B   3      74.018  44.747  59.1760  0.00  0.00     0.000 HD
ATOM     41   C  BGC B   3      69.043  42.530  60.1210  0.00  0.00     0.000 C
ATOM     42   O  BGC B   3      69.718  41.315  59.8980  0.00  0.00     0.000 O
ATOM     44  HD  BGC B   3      70.374  41.117  59.3670  0.00  0.00     0.000 HD
BRANCH 31 44
ATOM     44  O4  BGC B   4      71.557  43.613  63.8840  0.00  0.00     0.000 O
BRANCH 44 48
ATOM     45  C1  BGC B   4      70.319  43.600  67.7920  0.00  0.00     0.000 C
ATOM     46  C2  BGC B   4      69.473  42.753  66.8520  0.00  0.00     0.000 C
ATOM     47  C3  BGC B   4      70.229  42.519  65.5680  0.00  0.00     0.000 C
ATOM     48  C4  BGC B   4      70.677  43.853  64.9630  0.00  0.00     0.000 C
ATOM     49  C5  BGC B   4      71.434  44.689  66.0030  0.00  0.00     0.000 C
ATOM     50  O5  BGC B   4      70.623  44.853  67.1760  0.00  0.00     0.000 O
ATOM     51   O  BGC B   4      69.179  41.483  67.4630  0.00  0.00     0.000 O
ATOM     53  HD  BGC B   4      69.807  41.232  66.9220  0.00  0.00     0.000 HD
ATOM     53   O  BGC B   4      69.371  41.833  64.6450  0.00  0.00     0.000 O
ATOM     55  HD  BGC B   4      69.999  41.583  64.1030  0.00  0.00     0.000 HD
ATOM     55   C  BGC B   4      71.818  46.080  65.5310  0.00  0.00     0.000 C
ATOM     56   O  BGC B   4      70.626  46.735  65.0920  0.00  0.00     0.000 O
ATOM     58  HD  BGC B   4      71.254  46.485  64.5510  0.00  0.00     0.000 HD
BRANCH 45 58
ATOM     58  O4  BGC B   5      69.452  43.990  68.8560  0.00  0.00     0.000 O
BRANCH 58 62
ATOM     59  C1  BGC B   5      69.257  44.133  72.9900  0.00  0.00     0.000 C
ATOM     60  C2  BGC B   5      70.066  45.237  72.3390  0.00  0.00     0.000 C
ATOM     61  C3  BGC B   5      69.736  45.339  70.8620  0.00  0.00     0.000 C
ATOM     62  C4  BGC B   5      69.932  43.983  70.2030  0.00  0.00     0.000 C
ATOM     63  C5  BGC B   5      69.151  42.897  70.9570  0.00  0.00     0.000 C
ATOM     64  O5  BGC B   5      69.555  42.903  72.3220  0.00  0.00     0.000 O
ATOM     65   O  BGC B   5      70.795  41.293  70.4880  0.00  0.00     0.000 O
ATOM     67  HD  BGC B   5      71.442  41.128  69.9360  0.00  0.00     0.000 HD
ATOM     67   O  BGC B   5      70.795  41.293  70.4880  0.00  0.00     0.000 O
ATOM     69  HD  BGC B   5      71.442  41.128  69.9360  0.00  0.00     0.000 HD
ENDBRANCH 58 62
ENDBRANCH 45 58
ENDBRANCH 44 48
ENDBRANCH 31 44
ENDBRANCH 30 34
ENDBRANCH 17 30
ENDBRANCH 16 20
ENDBRANCH 1 16
TORSDOF 8
ENDMDL
MODEL 83
REMARK VINA RESULT:      -0.1     67.860     70.862
ROOT
ATOM      1  C1  BGC B   1      19.139  70.592  27.0380  0.00  0.00     0.000 C
ATOM      2  C2  BGC B   1      18.887  72.065  26.7200  0.00  0.00     0.000 C
ATOM      3  C3  BGC B   1      19.034  72.309  25.2310  0.00  0.00     0.000 C
ATOM      4  C4  BGC B   1      20.366  71.768  24.7240  0.00  0.00     0.000 C
ATOM      5  C5  BGC B   1      20.462  70.297  25.1000  0.00  0.00     0.000 C
ATOM      6  O5  BGC B   1      20.414  70.216  26.5370  0.00  0.00     0.000 O
ATOM      7   O  BGC B   1      17.555  72.416  27.1280  0.00  0.00     0.000 O
ATOM      9  HD  BGC B   1      17.160  73.060  26.7040  0.00  0.00     0.000 HD
ATOM      9   O  BGC B   1      18.926  73.713  24.9790  0.00  0.00     0.000 O
ATOM     11  HD  BGC B   1      18.532  74.357  24.5550  0.00  0.00     0.000 HD
ATOM     11   O  BGC B   1      20.433  71.912  23.3220  0.00  0.00     0.000 O
ATOM     13  HD  BGC B   1      20.039  72.556  22.8980  0.00  0.00     0.000 HD
ATOM     13   C  BGC B   1      21.724  69.596  24.6180  0.00  0.00     0.000 C
ATOM     14   O  BGC B   1      22.910  70.253  25.0540  0.00  0.00     0.000 O
ATOM     16  HD  BGC B   1      22.516  70.897  24.6300  0.00  0.00     0.000 HD
ENDROOT
BRANCH 1 16
ATOM     16  O4  BGC B   2      19.256  70.505  28.4560  0.00  0.00     0.000 O
BRANCH 16 20
ATOM     17  C1  BGC B   2      18.463  68.009  31.5670  0.00  0.00     0.000 C
ATOM     18  C2  BGC B   2      19.684  67.605  30.7550  0.00  0.00     0.000 C
ATOM     19  C3  BGC B   2      20.091  68.782  29.8720  0.00  0.00     0.000 C
ATOM     20  C4  BGC B   2      18.915  69.250  29.0390  0.00  0.00     0.000 C
ATOM     21  C5  BGC B   2      17.654  69.461  29.8770  0.00  0.00     0.000 C
ATOM     22  O5  BGC B   2      17.401  68.268  30.6300  0.00  0.00     0.000 O
ATOM     23   O  BGC B   2      20.774  67.276  31.6320  0.00  0.00     0.000 O
ATOM     25  HD  BGC B   2      20.586  67.969  31.1480  0.00  0.00     0.000 HD
ATOM     25   O  BGC B   2      21.172  68.404  29.0290  0.00  0.00     0.000 O
ATOM     27  HD  BGC B   2      20.984  69.096  28.5440  0.00  0.00     0.000 HD
ATOM     27   C  BGC B   2      16.419  69.747  29.0320  0.00  0.00     0.000 C
ATOM     28   O  BGC B   2      16.152  68.741  28.0680  0.00  0.00     0.000 O
ATOM     30  HD  BGC B   2      15.964  69.434  27.5840  0.00  0.00     0.000 HD
BRANCH 17 30
ATOM     30  O4  BGC B   3      18.050  66.862  32.2850  0.00  0.00     0.000 O
BRANCH 30 34
ATOM     31  C1  BGC B   3      16.242  65.852  35.8400  0.00  0.00     0.000 C
ATOM     32  C2  BGC B   3      15.311  66.502  34.8170  0.00  0.00     0.000 C
ATOM     33  C3  BGC B   3      15.973  66.455  33.4510  0.00  0.00     0.000 C
ATOM     34  C4  BGC B   3      17.352  67.111  33.5100  0.00  0.00     0.000 C
ATOM     35  C5  BGC B   3      18.173  66.516  34.6410  0.00  0.00     0.000 C
ATOM     36  O5  BGC B   3      17.438  66.615  35.8650  0.00  0.00     0.000 O
ATOM     37   O  BGC B   3      14.090  65.769  34.7520  0.00  0.00     0.000 O
ATOM     39  HD  BGC B   3      13.757  66.399  34.2590  0.00  0.00     0.000 HD
ATOM     39   O  BGC B   3      15.137  67.129  32.5230  0.00  0.00     0.000 O
ATOM     41  HD  BGC B   3      14.805  67.759  32.0290  0.00  0.00     0.000 HD
ATOM     41   C  BGC B   3      19.534  67.176  34.8320  0.00  0.00     0.000 C
ATOM     42   O  BGC B   3      19.376  68.554  35.0710  0.00  0.00     0.000 O
ATOM     44  HD  BGC B   3      19.044  69.184  34.5780  0.00  0.00     0.000 HD
BRANCH 31 44
ATOM     44  O4  BGC B   4      15.644  66.006  37.1020  0.00  0.00     0.000 O
BRANCH 44 48
ATOM     45  C1  BGC B   4      15.346  64.113  40.7260  0.00  0.00     0.000 C
ATOM     46  C2  BGC B   4      16.685  64.788  40.4670  0.00  0.00     0.000 C
ATOM     47  C3  BGC B   4      16.546  65.758  39.3200  0.00  0.00     0.000 C
ATOM     48  C4  BGC B   4      15.964  65.050  38.0930  0.00  0.00     0.000 C
ATOM     49  C5  BGC B   4      14.671  64.311  38.4600  0.00  0.00     0.000 C
ATOM     50  O5  BGC B   4      14.919  63.416  39.5540  0.00  0.00     0.000 O
ATOM     51   O  BGC B   4      17.110  65.507  41.6410  0.00  0.00     0.000 O
ATOM     53  HD  BGC B   4      16.824  66.173  41.1680  0.00  0.00     0.000 HD
ATOM     53   O  BGC B   4      17.842  66.288  39.0030  0.00  0.00     0.000 O
ATOM     55  HD  BGC B   4      17.556  66.955  38.5300  0.00  0.00     0.000 HD
ATOM     55   C  BGC B   4      14.081  63.482  37.3340  0.00  0.00     0.000 C
ATOM     56   O  BGC B   4      15.093  62.582  36.8780  0.00  0.00     0.000 O
ATOM     58  HD  BGC B   4      14.807  63.249  36.4060  0.00  0.00     0.000 HD
BRANCH 45 58
ATOM     58  O4  BGC B   5      15.616  63.044  41.6320  0.00  0.00     0.000 O
BRANCH 58 62
ATOM     59  C1  BGC B   5      14.255  61.362  45.1630  0.00  0.00     0.000 C
ATOM     60  C2  BGC B   5      13.431  61.044  43.9320  0.00  0.00     0.000 C
ATOM     61  C3  BGC B   5      14.221  61.342  42.6710  0.00  0.00     0.000 C
ATOM     62  C4  BGC B   5      14.712  62.780  42.7080  0.00  0.00     0.000 C
ATOM     63  C5  BGC B   5      15.469  63.060  44.0140  0.00  0.00     0.000 C
ATOM     64  O5  BGC B   5      14.622  62.745  45.1140  0.00  0.00     0.000 O
ATOM     65   O  BGC B   5      14.698  65.273  44.0670  0.00  0.00     0.000 O
ATOM     67  HD  BGC B   5      14.380  65.891  43.5510  0.00  0.00     0.000 HD
ATOM     67   O  BGC B   5      14.698  65.273  44.0670  0.00  0.00     0.000 O
ATOM     69  HD  BGC B   5      14.380  65.891  43.5510  0.00  0.00     0.000 HD
ENDBRANCH 58 62
ENDBRANCH 45 58
ENDBRANCH 44 48
ENDBRANCH 31 44
ENDBRANCH 30 34
ENDBRANCH 17 30
ENDBRANCH 16 20
ENDBRANCH 1 16
TORSDOF 8
ENDMDL
MODEL 84
REMARK VINA RESULT:      -0.1     57.120     64.102
ROOT
ATOM      1  C1  BGC B   1      68.023  23.502  36.3470  0.00  0.00     0.000 C
ATOM      2  C2  BGC B   1      69.299  23.527  37.1860  0.00  0.00     0.000 C
ATOM      3  C3  BGC B   1      70.417  24.203  36.4160  0.00  0.00     0.000 C
ATOM      4  C4  BGC B   1      70.576  23.576  35.0360  0.00  0.00     0.000 C
ATOM      5  C5  BGC B   1      69.235  23.640  34.3210  0.00  0.00     0.000 C
ATOM      6  O5  BGC B   1      68.295  22.877  35.1000  0.00  0.00     0.000 O
ATOM      7   O  BGC B   1      69.053  24.256  38.4000  0.00  0.00     0.000 O
ATOM      9  HD  BGC B   1      69.725  24.653  38.7750  0.00  0.00     0.000 HD
ATOM      9   O  BGC B   1      71.629  24.094  37.1680  0.00  0.00     0.000 O
ATOM     11  HD  BGC B   1      72.301  24.490  37.5430  0.00  0.00     0.000 HD
ATOM     11   O  BGC B   1      71.547  24.289  34.3020  0.00  0.00     0.000 O
ATOM     13  HD  BGC B   1      72.220  24.686  34.6760  0.00  0.00     0.000 HD
ATOM     13   C  BGC B   1      69.242  23.092  32.9000  0.00  0.00     0.000 C
ATOM     14   O  BGC B   1      69.726  21.754  32.8370  0.00  0.00     0.000 O
ATOM     16  HD  BGC B   1      70.399  22.151  33.2120  0.00  0.00     0.000 HD
ENDROOT
BRANCH 1 16
ATOM     16  O4  BGC B   2      67.123  22.621  37.0160  0.00  0.00     0.000 O
BRANCH 16 20
ATOM     17  C1  BGC B   2      63.161  22.069  37.7480  0.00  0.00     0.000 C
ATOM     18  C2  BGC B   2      63.579  21.698  36.3330  0.00  0.00     0.000 C
ATOM     19  C3  BGC B   2      65.102  21.595  36.2880  0.00  0.00     0.000 C
ATOM     20  C4  BGC B   2      65.734  22.868  36.8110  0.00  0.00     0.000 C
ATOM     21  C5  BGC B   2      65.144  23.304  38.1530  0.00  0.00     0.000 C
ATOM     22  O5  BGC B   2      63.718  23.368  38.0240  0.00  0.00     0.000 O
ATOM     23   O  BGC B   2      63.011  20.430  35.9670  0.00  0.00     0.000 O
ATOM     25  HD  BGC B   2      63.801  20.680  36.2170  0.00  0.00     0.000 HD
ATOM     25   O  BGC B   2      65.531  21.343  34.9550  0.00  0.00     0.000 O
ATOM     27  HD  BGC B   2      66.321  21.593  35.2050  0.00  0.00     0.000 HD
ATOM     27   C  BGC B   2      65.632  24.677  38.5990  0.00  0.00     0.000 C
ATOM     28   O  BGC B   2      65.383  25.698  37.6470  0.00  0.00     0.000 O
ATOM     30  HD  BGC B   2      66.174  25.948  37.8970  0.00  0.00     0.000 HD
BRANCH 17 30
ATOM     30  O4  BGC B   3      61.760  22.266  37.7240  0.00  0.00     0.000 O
BRANCH 30 34
ATOM     31  C1  BGC B   3      58.479  21.856  40.1720  0.00  0.00     0.000 C
ATOM     32  C2  BGC B   3      59.413  23.005  40.5490  0.00  0.00     0.000 C
ATOM     33  C3  BGC B   3      60.331  23.298  39.3760  0.00  0.00     0.000 C
ATOM     34  C4  BGC B   3      61.077  22.031  38.9590  0.00  0.00     0.000 C
ATOM     35  C5  BGC B   3      60.099  20.890  38.7390  0.00  0.00     0.000 C
ATOM     36  O5  BGC B   3      59.291  20.722  39.9090  0.00  0.00     0.000 O
ATOM     37   O  BGC B   3      58.643  24.174  40.8230  0.00  0.00     0.000 O
ATOM     39  HD  BGC B   3      59.360  24.557  41.1190  0.00  0.00     0.000 HD
ATOM     39   O  BGC B   3      61.245  24.313  39.7620  0.00  0.00     0.000 O
ATOM     41  HD  BGC B   3      61.963  24.697  40.0580  0.00  0.00     0.000 HD
ATOM     41   C  BGC B   3      60.764  19.559  38.4080  0.00  0.00     0.000 C
ATOM     42   O  BGC B   3      61.654  19.193  39.4350  0.00  0.00     0.000 O
ATOM     44  HD  BGC B   3      62.372  19.576  39.7310  0.00  0.00     0.000 HD
BRANCH 31 44
ATOM     44  O4  BGC B   4      57.719  21.546  41.3120  0.00  0.00     0.000 O
BRANCH 44 48
ATOM     45  C1  BGC B   4      54.018  20.139  42.3740  0.00  0.00     0.000 C
ATOM     46  C2  BGC B   4      54.971  19.083  41.8310  0.00  0.00     0.000 C
ATOM     47  C3  BGC B   4      56.381  19.620  41.8510  0.00  0.00     0.000 C
ATOM     48  C4  BGC B   4      56.452  20.956  41.1070  0.00  0.00     0.000 C
ATOM     49  C5  BGC B   4      55.394  21.929  41.6430  0.00  0.00     0.000 C
ATOM     50  O5  BGC B   4      54.096  21.320  41.5730  0.00  0.00     0.000 O
ATOM     51   O  BGC B   4      54.908  17.897  42.6460  0.00  0.00     0.000 O
ATOM     53  HD  BGC B   4      55.648  18.231  42.9470  0.00  0.00     0.000 HD
ATOM     53   O  BGC B   4      57.247  18.667  41.2180  0.00  0.00     0.000 O
ATOM     55  HD  BGC B   4      57.987  19.001  41.5190  0.00  0.00     0.000 HD
ATOM     55   C  BGC B   4      55.309  23.243  40.8880  0.00  0.00     0.000 C
ATOM     56   O  BGC B   4      55.095  22.939  39.5080  0.00  0.00     0.000 O
ATOM     58  HD  BGC B   4      55.835  23.273  39.8090  0.00  0.00     0.000 HD
BRANCH 45 58
ATOM     58  O4  BGC B   5      52.703  19.665  42.0850  0.00  0.00     0.000 O
BRANCH 58 62
ATOM     59  C1  BGC B   5      49.002  19.088  43.8500  0.00  0.00     0.000 C
ATOM     60  C2  BGC B   5      49.327  20.519  43.4740  0.00  0.00     0.000 C
ATOM     61  C3  BGC B   5      50.477  20.563  42.4860  0.00  0.00     0.000 C
ATOM     62  C4  BGC B   5      51.667  19.809  43.0590  0.00  0.00     0.000 C
ATOM     63  C5  BGC B   5      51.254  18.395  43.4930  0.00  0.00     0.000 C
ATOM     64  O5  BGC B   5      50.175  18.494  44.4170  0.00  0.00     0.000 O
ATOM     65   O  BGC B   5      52.772  18.426  45.2790  0.00  0.00     0.000 O
ATOM     67  HD  BGC B   5      53.494  18.822  45.5470  0.00  0.00     0.000 HD
ATOM     67   O  BGC B   5      52.772  18.426  45.2790  0.00  0.00     0.000 O
ATOM     69  HD  BGC B   5      53.494  18.822  45.5470  0.00  0.00     0.000 HD
ENDBRANCH 58 62
ENDBRANCH 45 58
ENDBRANCH 44 48
ENDBRANCH 31 44
ENDBRANCH 30 34
ENDBRANCH 17 30
ENDBRANCH 16 20
ENDBRANCH 1 16
TORSDOF 8
ENDMDL
MODEL 85
REMARK VINA RESULT:      -0.1     74.371     77.777
ROOT
ATOM      1  C1  BGC B   1      14.851  62.816  58.9140  0.00  0.00     0.000 C
ATOM      2  C2  BGC B   1      14.541  64.125  58.1890  0.00  0.00     0.000 C
ATOM      3  C3  BGC B   1      15.824  64.886  57.9180  0.00  0.00     0.000 C
ATOM      4  C4  BGC B   1      16.638  65.044  59.1960  0.00  0.00     0.000 C
ATOM      5  C5  BGC B   1      16.877  63.663  59.7890  0.00  0.00     0.000 C
ATOM      6  O5  BGC B   1      15.589  63.097  60.0940  0.00  0.00     0.000 O
ATOM      7   O  BGC B   1      13.891  63.832  56.9410  0.00  0.00     0.000 O
ATOM      9  HD  BGC B   1      13.987  64.401  56.2950  0.00  0.00     0.000 HD
ATOM      9   O  BGC B   1      15.495  66.162  57.3620  0.00  0.00     0.000 O
ATOM     11  HD  BGC B   1      15.591  66.731  56.7150  0.00  0.00     0.000 HD
ATOM     11   O  BGC B   1      17.872  65.660  58.8990  0.00  0.00     0.000 O
ATOM     13  HD  BGC B   1      17.968  66.228  58.2520  0.00  0.00     0.000 HD
ATOM     13   C  BGC B   1      17.724  63.649  61.0530  0.00  0.00     0.000 C
ATOM     14   O  BGC B   1      17.194  64.492  62.0710  0.00  0.00     0.000 O
ATOM     16  HD  BGC B   1      17.290  65.061  61.4240  0.00  0.00     0.000 HD
ENDROOT
BRANCH 1 16
ATOM     16  O4  BGC B   2      13.599  62.308  59.3710  0.00  0.00     0.000 O
BRANCH 16 20
ATOM     17  C1  BGC B   2      11.634  58.811  60.0420  0.00  0.00     0.000 C
ATOM     18  C2  BGC B   2      12.683  59.135  61.0960  0.00  0.00     0.000 C
ATOM     19  C3  BGC B   2      13.080  60.602  60.9490  0.00  0.00     0.000 C
ATOM     20  C4  BGC B   2      13.514  60.893  59.5270  0.00  0.00     0.000 C
ATOM     21  C5  BGC B   2      12.512  60.377  58.4950  0.00  0.00     0.000 C
ATOM     22  O5  BGC B   2      12.259  58.991  58.7580  0.00  0.00     0.000 O
ATOM     23   O  BGC B   2      12.144  58.923  62.4110  0.00  0.00     0.000 O
ATOM     25  HD  BGC B   2      12.293  59.631  61.9340  0.00  0.00     0.000 HD
ATOM     25   O  BGC B   2      14.130  60.913  61.8580  0.00  0.00     0.000 O
ATOM     27  HD  BGC B   2      14.279  61.620  61.3810  0.00  0.00     0.000 HD
ATOM     27   C  BGC B   2      13.021  60.492  57.0630  0.00  0.00     0.000 C
ATOM     28   O  BGC B   2      14.260  59.835  56.8520  0.00  0.00     0.000 O
ATOM     30  HD  BGC B   2      14.409  60.542  56.3760  0.00  0.00     0.000 HD
BRANCH 17 30
ATOM     30  O4  BGC B   3      11.376  57.423  60.1360  0.00  0.00     0.000 O
BRANCH 30 34
ATOM     31  C1  BGC B   3       8.297  54.751  59.5800  0.00  0.00     0.000 C
ATOM     32  C2  BGC B   3       8.874  55.331  58.2900  0.00  0.00     0.000 C
ATOM     33  C3  BGC B   3      10.220  55.964  58.5950  0.00  0.00     0.000 C
ATOM     34  C4  BGC B   3      10.076  57.002  59.7080  0.00  0.00     0.000 C
ATOM     35  C5  BGC B   3       9.367  56.396  60.9060  0.00  0.00     0.000 C
ATOM     36  O5  BGC B   3       8.122  55.829  60.4860  0.00  0.00     0.000 O
ATOM     37   O  BGC B   3       9.072  54.283  57.3440  0.00  0.00     0.000 O
ATOM     39  HD  BGC B   3       9.242  54.882  56.7410  0.00  0.00     0.000 HD
ATOM     39   O  BGC B   3      10.712  56.568  57.4080  0.00  0.00     0.000 O
ATOM     41  HD  BGC B   3      10.882  57.167  56.8050  0.00  0.00     0.000 HD
ATOM     41   C  BGC B   3       9.098  57.387  62.0330  0.00  0.00     0.000 C
ATOM     42   O  BGC B   3       8.330  58.467  61.5570  0.00  0.00     0.000 O
ATOM     44  HD  BGC B   3       8.500  59.065  60.9540  0.00  0.00     0.000 HD
BRANCH 31 44
ATOM     44  O4  BGC B   4       7.013  54.268  59.2810  0.00  0.00     0.000 O
BRANCH 44 48
ATOM     45  C1  BGC B   4       4.389  51.322  60.3960  0.00  0.00     0.000 C
ATOM     46  C2  BGC B   4       4.516  52.472  61.3860  0.00  0.00     0.000 C
ATOM     47  C3  BGC B   4       5.178  53.647  60.7100  0.00  0.00     0.000 C
ATOM     48  C4  BGC B   4       6.509  53.220  60.0840  0.00  0.00     0.000 C
ATOM     49  C5  BGC B   4       6.312  51.996  59.1810  0.00  0.00     0.000 C
ATOM     50  O5  BGC B   4       5.682  50.942  59.9250  0.00  0.00     0.000 O
ATOM     51   O  BGC B   4       3.212  52.869  61.8510  0.00  0.00     0.000 O
ATOM     53  HD  BGC B   4       3.356  53.507  61.2830  0.00  0.00     0.000 HD
ATOM     53   O  BGC B   4       5.409  54.672  61.6870  0.00  0.00     0.000 O
ATOM     55  HD  BGC B   4       5.553  55.310  61.1200  0.00  0.00     0.000 HD
ATOM     55   C  BGC B   4       7.597  51.427  58.6060  0.00  0.00     0.000 C
ATOM     56   O  BGC B   4       8.474  51.142  59.6970  0.00  0.00     0.000 O
ATOM     58  HD  BGC B   4       8.618  51.780  59.1300  0.00  0.00     0.000 HD
BRANCH 45 58
ATOM     58  O4  BGC B   5       4.001  50.185  61.1660  0.00  0.00     0.000 O
BRANCH 58 62
ATOM     59  C1  BGC B   5       1.262  47.079  61.2120  0.00  0.00     0.000 C
ATOM     60  C2  BGC B   5       2.419  46.911  60.2480  0.00  0.00     0.000 C
ATOM     61  C3  BGC B   5       3.548  47.861  60.6000  0.00  0.00     0.000 C
ATOM     62  C4  BGC B   5       3.015  49.284  60.6550  0.00  0.00     0.000 C
ATOM     63  C5  BGC B   5       1.796  49.371  61.5850  0.00  0.00     0.000 C
ATOM     64  O5  BGC B   5       0.815  48.437  61.1450  0.00  0.00     0.000 O
ATOM     65   O  BGC B   5       0.808  51.023  60.2480  0.00  0.00     0.000 O
ATOM     67  HD  BGC B   5       1.006  51.622  59.6540  0.00  0.00     0.000 HD
ATOM     67   O  BGC B   5       0.808  51.023  60.2480  0.00  0.00     0.000 O
ATOM     69  HD  BGC B   5       1.006  51.622  59.6540  0.00  0.00     0.000 HD
ENDBRANCH 58 62
ENDBRANCH 45 58
ENDBRANCH 44 48
ENDBRANCH 31 44
ENDBRANCH 30 34
ENDBRANCH 17 30
ENDBRANCH 16 20
ENDBRANCH 1 16
TORSDOF 8
ENDMDL
MODEL 86
REMARK VINA RESULT:      -0.1     56.038     57.997
ROOT
ATOM      1  C1  BGC B   1      14.928  19.007  64.0890  0.00  0.00     0.000 C
ATOM      2  C2  BGC B   1      14.865  18.803  65.6020  0.00  0.00     0.000 C
ATOM      3  C3  BGC B   1      13.420  18.766  66.0630  0.00  0.00     0.000 C
ATOM      4  C4  BGC B   1      12.661  19.984  65.5530  0.00  0.00     0.000 C
ATOM      5  C5  BGC B   1      12.803  20.042  64.0390  0.00  0.00     0.000 C
ATOM      6  O5  BGC B   1      14.205  20.180  63.7440  0.00  0.00     0.000 O
ATOM      7   O  BGC B   1      15.501  17.559  65.9380  0.00  0.00     0.000 O
ATOM      9  HD  BGC B   1      15.233  17.151  66.6540  0.00  0.00     0.000 HD
ATOM      9   O  BGC B   1      13.392  18.709  67.4920  0.00  0.00     0.000 O
ATOM     11  HD  BGC B   1      13.125  18.300  68.2070  0.00  0.00     0.000 HD
ATOM     11   O  BGC B   1      11.298  19.874  65.9050  0.00  0.00     0.000 O
ATOM     13  HD  BGC B   1      11.031  19.466  66.6200  0.00  0.00     0.000 HD
ATOM     13   C  BGC B   1      12.053  21.186  63.3710  0.00  0.00     0.000 C
ATOM     14   O  BGC B   1      12.410  22.456  63.9080  0.00  0.00     0.000 O
ATOM     16  HD  BGC B   1      12.142  22.048  64.6240  0.00  0.00     0.000 HD
ENDROOT
BRANCH 1 16
ATOM     16  O4  BGC B   2      16.289  19.305  63.7840  0.00  0.00     0.000 O
BRANCH 16 20
ATOM     17  C1  BGC B   2      19.092  18.779  60.8850  0.00  0.00     0.000 C
ATOM     18  C2  BGC B   2      18.052  19.837  60.5450  0.00  0.00     0.000 C
ATOM     19  C3  BGC B   2      17.296  20.201  61.8210  0.00  0.00     0.000 C
ATOM     20  C4  BGC B   2      16.729  18.957  62.4740  0.00  0.00     0.000 C
ATOM     21  C5  BGC B   2      17.773  17.849  62.6210  0.00  0.00     0.000 C
ATOM     22  O5  BGC B   2      18.375  17.617  61.3410  0.00  0.00     0.000 O
ATOM     23   O  BGC B   2      18.695  21.014  60.0280  0.00  0.00     0.000 O
ATOM     25  HD  BGC B   2      18.350  20.811  60.7970  0.00  0.00     0.000 HD
ATOM     25   O  BGC B   2      16.252  21.119  61.5200  0.00  0.00     0.000 O
ATOM     27  HD  BGC B   2      15.907  20.916  62.2880  0.00  0.00     0.000 HD
ATOM     27   C  BGC B   2      17.177  16.531  63.0990  0.00  0.00     0.000 C
ATOM     28   O  BGC B   2      16.130  16.053  62.2690  0.00  0.00     0.000 O
ATOM     30  HD  BGC B   2      15.785  15.850  63.0370  0.00  0.00     0.000 HD
BRANCH 17 30
ATOM     30  O4  BGC B   3      19.691  18.388  59.6640  0.00  0.00     0.000 O
BRANCH 30 34
ATOM     31  C1  BGC B   3      23.300  17.046  58.2160  0.00  0.00     0.000 C
ATOM     32  C2  BGC B   3      22.540  16.028  59.0660  0.00  0.00     0.000 C
ATOM     33  C3  BGC B   3      21.095  16.479  59.1950  0.00  0.00     0.000 C
ATOM     34  C4  BGC B   3      21.032  17.898  59.7590  0.00  0.00     0.000 C
ATOM     35  C5  BGC B   3      21.923  18.826  58.9520  0.00  0.00     0.000 C
ATOM     36  O5  BGC B   3      23.249  18.288  58.9000  0.00  0.00     0.000 O
ATOM     37   O  BGC B   3      22.560  14.758  58.4190  0.00  0.00     0.000 O
ATOM     39  HD  BGC B   3      22.221  14.407  59.1340  0.00  0.00     0.000 HD
ATOM     39   O  BGC B   3      20.416  15.570  60.0490  0.00  0.00     0.000 O
ATOM     41  HD  BGC B   3      20.077  15.219  60.7640  0.00  0.00     0.000 HD
ATOM     41   C  BGC B   3      21.994  20.248  59.5000  0.00  0.00     0.000 C
ATOM     42   O  BGC B   3      22.451  20.233  60.8310  0.00  0.00     0.000 O
ATOM     44  HD  BGC B   3      22.112  19.881  61.5470  0.00  0.00     0.000 HD
BRANCH 31 44
ATOM     44  O4  BGC B   4      24.649  16.652  58.2050  0.00  0.00     0.000 O
BRANCH 44 48
ATOM     45  C1  BGC B   4      27.962  16.732  55.7920  0.00  0.00     0.000 C
ATOM     46  C2  BGC B   4      27.587  18.074  56.4060  0.00  0.00     0.000 C
ATOM     47  C3  BGC B   4      26.630  17.853  57.5510  0.00  0.00     0.000 C
ATOM     48  C4  BGC B   4      25.426  17.028  57.0860  0.00  0.00     0.000 C
ATOM     49  C5  BGC B   4      25.889  15.744  56.3890  0.00  0.00     0.000 C
ATOM     50  O5  BGC B   4      26.788  16.071  55.3180  0.00  0.00     0.000 O
ATOM     51   O  BGC B   4      28.767  18.736  56.9010  0.00  0.00     0.000 O
ATOM     53  HD  BGC B   4      28.448  18.445  57.6520  0.00  0.00     0.000 HD
ATOM     53   O  BGC B   4      26.185  19.129  58.0350  0.00  0.00     0.000 O
ATOM     55  HD  BGC B   4      25.867  18.837  58.7850  0.00  0.00     0.000 HD
ATOM     55   C  BGC B   4      24.768  14.915  55.7890  0.00  0.00     0.000 C
ATOM     56   O  BGC B   4      24.028  15.759  54.9040  0.00  0.00     0.000 O
ATOM     58  HD  BGC B   4      23.710  15.467  55.6550  0.00  0.00     0.000 HD
BRANCH 45 58
ATOM     58  O4  BGC B   5      28.648  17.036  54.5780  0.00  0.00     0.000 O
BRANCH 58 62
ATOM     59  C1  BGC B   5      32.086  16.087  52.4740  0.00  0.00     0.000 C
ATOM     60  C2  BGC B   5      30.971  15.065  52.3910  0.00  0.00     0.000 C
ATOM     61  C3  BGC B   5      29.653  15.679  52.8260  0.00  0.00     0.000 C
ATOM     62  C4  BGC B   5      29.808  16.286  54.2110  0.00  0.00     0.000 C
ATOM     63  C5  BGC B   5      31.003  17.250  54.2490  0.00  0.00     0.000 C
ATOM     64  O5  BGC B   5      32.170  16.553  53.8250  0.00  0.00     0.000 O
ATOM     65   O  BGC B   5      31.482  16.678  56.4720  0.00  0.00     0.000 O
ATOM     67  HD  BGC B   5      31.113  16.337  57.1770  0.00  0.00     0.000 HD
ATOM     67   O  BGC B   5      31.482  16.678  56.4720  0.00  0.00     0.000 O
ATOM     69  HD  BGC B   5      31.113  16.337  57.1770  0.00  0.00     0.000 HD
ENDBRANCH 58 62
ENDBRANCH 45 58
ENDBRANCH 44 48
ENDBRANCH 31 44
ENDBRANCH 30 34
ENDBRANCH 17 30
ENDBRANCH 16 20
ENDBRANCH 1 16
TORSDOF 8
ENDMDL
MODEL 87
REMARK VINA RESULT:      -0.1     54.969     60.620
ROOT
ATOM      1  C1  BGC B   1      38.903  34.852  45.3280  0.00  0.00     0.000 C
ATOM      2  C2  BGC B   1      39.233  36.344  45.3540  0.00  0.00     0.000 C
ATOM      3  C3  BGC B   1      38.050  37.148  44.8490  0.00  0.00     0.000 C
ATOM      4  C4  BGC B   1      37.581  36.625  43.4970  0.00  0.00     0.000 C
ATOM      5  C5  BGC B   1      37.278  35.140  43.6340  0.00  0.00     0.000 C
ATOM      6  O5  BGC B   1      38.502  34.484  44.0160  0.00  0.00     0.000 O
ATOM      7   O  BGC B   1      39.531  36.739  46.7040  0.00  0.00     0.000 O
ATOM      9  HD  BGC B   1      39.377  37.562  46.9260  0.00  0.00     0.000 HD
ATOM      9   O  BGC B   1      38.431  38.524  44.7580  0.00  0.00     0.000 O
ATOM     11  HD  BGC B   1      38.278  39.347  44.9800  0.00  0.00     0.000 HD
ATOM     11   O  BGC B   1      36.418  37.318  43.0990  0.00  0.00     0.000 O
ATOM     13  HD  BGC B   1      36.264  38.140  43.3210  0.00  0.00     0.000 HD
ATOM     13   C  BGC B   1      36.748  34.476  42.3710  0.00  0.00     0.000 C
ATOM     14   O  BGC B   1      37.615  34.661  41.2570  0.00  0.00     0.000 O
ATOM     16  HD  BGC B   1      37.462  35.484  41.4790  0.00  0.00     0.000 HD
ENDROOT
BRANCH 1 16
ATOM     16  O4  BGC B   2      40.135  34.168  45.5460  0.00  0.00     0.000 O
BRANCH 16 20
ATOM     17  C1  BGC B   2      41.652  30.815  47.2760  0.00  0.00     0.000 C
ATOM     18  C2  BGC B   2      40.942  30.554  45.9560  0.00  0.00     0.000 C
ATOM     19  C3  BGC B   2      40.748  31.888  45.2380  0.00  0.00     0.000 C
ATOM     20  C4  BGC B   2      40.040  32.877  46.1420  0.00  0.00     0.000 C
ATOM     21  C5  BGC B   2      40.681  32.963  47.5270  0.00  0.00     0.000 C
ATOM     22  O5  BGC B   2      40.777  31.640  48.0680  0.00  0.00     0.000 O
ATOM     23   O  BGC B   2      41.738  29.688  45.1300  0.00  0.00     0.000 O
ATOM     25  HD  BGC B   2      41.589  30.541  45.1300  0.00  0.00     0.000 HD
ATOM     25   O  BGC B   2      40.001  31.691  44.0430  0.00  0.00     0.000 O
ATOM     27  HD  BGC B   2      39.852  32.544  44.0430  0.00  0.00     0.000 HD
ATOM     27   C  BGC B   2      39.872  33.807  48.5050  0.00  0.00     0.000 C
ATOM     28   O  BGC B   2      38.534  33.363  48.6570  0.00  0.00     0.000 O
ATOM     30  HD  BGC B   2      38.385  34.216  48.6570  0.00  0.00     0.000 HD
BRANCH 17 30
ATOM     30  O4  BGC B   3      41.713  29.578  47.9600  0.00  0.00     0.000 O
BRANCH 30 34
ATOM     31  C1  BGC B   3      44.131  27.554  50.6020  0.00  0.00     0.000 C
ATOM     32  C2  BGC B   3      43.389  28.746  51.2060  0.00  0.00     0.000 C
ATOM     33  C3  BGC B   3      42.260  29.146  50.2730  0.00  0.00     0.000 C
ATOM     34  C4  BGC B   3      42.804  29.424  48.8730  0.00  0.00     0.000 C
ATOM     35  C5  BGC B   3      43.649  28.257  48.3930  0.00  0.00     0.000 C
ATOM     36  O5  BGC B   3      44.668  27.977  49.3590  0.00  0.00     0.000 O
ATOM     37   O  BGC B   3      42.827  28.371  52.4610  0.00  0.00     0.000 O
ATOM     39  HD  BGC B   3      42.629  29.202  52.6030  0.00  0.00     0.000 HD
ATOM     39   O  BGC B   3      41.626  30.301  50.8030  0.00  0.00     0.000 O
ATOM     41  HD  BGC B   3      41.428  31.132  50.9440  0.00  0.00     0.000 HD
ATOM     41   C  BGC B   3      44.310  28.486  47.0380  0.00  0.00     0.000 C
ATOM     42   O  BGC B   3      45.120  29.637  47.0820  0.00  0.00     0.000 O
ATOM     44  HD  BGC B   3      44.922  30.469  47.2230  0.00  0.00     0.000 HD
BRANCH 31 44
ATOM     44  O4  BGC B   4      45.226  27.279  51.4380  0.00  0.00     0.000 O
BRANCH 44 48
ATOM     45  C1  BGC B   4      47.527  24.141  52.7270  0.00  0.00     0.000 C
ATOM     46  C2  BGC B   4      47.805  24.592  51.3000  0.00  0.00     0.000 C
ATOM     47  C3  BGC B   4      47.207  25.960  51.0790  0.00  0.00     0.000 C
ATOM     48  C4  BGC B   4      45.720  25.956  51.4480  0.00  0.00     0.000 C
ATOM     49  C5  BGC B   4      45.516  25.393  52.8600  0.00  0.00     0.000 C
ATOM     50  O5  BGC B   4      46.118  24.094  52.9550  0.00  0.00     0.000 O
ATOM     51   O  BGC B   4      49.225  24.658  51.0710  0.00  0.00     0.000 O
ATOM     53  HD  BGC B   4      49.064  25.503  51.1730  0.00  0.00     0.000 HD
ATOM     53   O  BGC B   4      47.362  26.314  49.6970  0.00  0.00     0.000 O
ATOM     55  HD  BGC B   4      47.200  27.159  49.8000  0.00  0.00     0.000 HD
ATOM     55   C  BGC B   4      44.063  25.241  53.2710  0.00  0.00     0.000 C
ATOM     56   O  BGC B   4      43.413  24.438  52.2850  0.00  0.00     0.000 O
ATOM     58  HD  BGC B   4      43.251  25.283  52.3870  0.00  0.00     0.000 HD
BRANCH 45 58
ATOM     58  O4  BGC B   5      47.888  22.761  52.7780  0.00  0.00     0.000 O
BRANCH 58 62
ATOM     59  C1  BGC B   5      50.054  20.060  55.0490  0.00  0.00     0.000 C
ATOM     60  C2  BGC B   5      48.696  20.435  55.6060  0.00  0.00     0.000 C
ATOM     61  C3  BGC B   5      47.837  21.074  54.5300  0.00  0.00     0.000 C
ATOM     62  C4  BGC B   5      48.581  22.251  53.9200  0.00  0.00     0.000 C
ATOM     63  C5  BGC B   5      49.978  21.822  53.4480  0.00  0.00     0.000 C
ATOM     64  O5  BGC B   5      50.677  21.246  54.5460  0.00  0.00     0.000 O
ATOM     65   O  BGC B   5      50.878  23.919  53.9890  0.00  0.00     0.000 O
ATOM     67  HD  BGC B   5      50.643  24.742  54.1220  0.00  0.00     0.000 HD
ATOM     67   O  BGC B   5      50.878  23.919  53.9890  0.00  0.00     0.000 O
ATOM     69  HD  BGC B   5      50.643  24.742  54.1220  0.00  0.00     0.000 HD
ENDBRANCH 58 62
ENDBRANCH 45 58
ENDBRANCH 44 48
ENDBRANCH 31 44
ENDBRANCH 30 34
ENDBRANCH 17 30
ENDBRANCH 16 20
ENDBRANCH 1 16
TORSDOF 8
ENDMDL
MODEL 88
REMARK VINA RESULT:      -0.1     68.885     72.471
ROOT
ATOM      1  C1  BGC B   1      56.537  63.476  12.5010  0.00  0.00     0.000 C
ATOM      2  C2  BGC B   1      55.873  64.461  11.5410  0.00  0.00     0.000 C
ATOM      3  C3  BGC B   1      55.493  65.731  12.2790  0.00  0.00     0.000 C
ATOM      4  C4  BGC B   1      54.677  65.408  13.5240  0.00  0.00     0.000 C
ATOM      5  C5  BGC B   1      55.472  64.434  14.3820  0.00  0.00     0.000 C
ATOM      6  O5  BGC B   1      55.673  63.240  13.6030  0.00  0.00     0.000 O
ATOM      7   O  BGC B   1      56.791  64.785  10.4840  0.00  0.00     0.000 O
ATOM      9  HD  BGC B   1      56.709  65.558  10.1020  0.00  0.00     0.000 HD
ATOM      9   O  BGC B   1      54.756  66.578  11.3920  0.00  0.00     0.000 O
ATOM     11  HD  BGC B   1      54.674  67.351  11.0110  0.00  0.00     0.000 HD
ATOM     11   O  BGC B   1      54.427  66.593  14.2480  0.00  0.00     0.000 O
ATOM     13  HD  BGC B   1      54.345  67.366  13.8660  0.00  0.00     0.000 HD
ATOM     13   C  BGC B   1      54.806  64.049  15.6950  0.00  0.00     0.000 C
ATOM     14   O  BGC B   1      53.497  63.520  15.5050  0.00  0.00     0.000 O
ATOM     16  HD  BGC B   1      53.415  64.293  15.1230  0.00  0.00     0.000 HD
ENDROOT
BRANCH 1 16
ATOM     16  O4  BGC B   2      56.606  62.231  11.8090  0.00  0.00     0.000 O
BRANCH 16 20
ATOM     17  C1  BGC B   2      58.935  58.918  11.4310  0.00  0.00     0.000 C
ATOM     18  C2  BGC B   2      58.139  58.962  12.7270  0.00  0.00     0.000 C
ATOM     19  C3  BGC B   2      57.054  60.029  12.5950  0.00  0.00     0.000 C
ATOM     20  C4  BGC B   2      57.663  61.356  12.1930  0.00  0.00     0.000 C
ATOM     21  C5  BGC B   2      58.607  61.226  10.9960  0.00  0.00     0.000 C
ATOM     22  O5  BGC B   2      59.569  60.203  11.2840  0.00  0.00     0.000 O
ATOM     23   O  BGC B   2      57.519  57.688  12.9690  0.00  0.00     0.000 O
ATOM     25  HD  BGC B   2      57.226  58.448  12.6740  0.00  0.00     0.000 HD
ATOM     25   O  BGC B   2      56.353  60.161  13.8260  0.00  0.00     0.000 O
ATOM     27  HD  BGC B   2      56.060  60.921  13.5310  0.00  0.00     0.000 HD
ATOM     27   C  BGC B   2      59.371  62.510  10.6990  0.00  0.00     0.000 C
ATOM     28   O  BGC B   2      60.115  62.991  11.8070  0.00  0.00     0.000 O
ATOM     30  HD  BGC B   2      59.822  63.750  11.5110  0.00  0.00     0.000 HD
BRANCH 17 30
ATOM     30  O4  BGC B   3      59.995  58.004  11.6320  0.00  0.00     0.000 O
BRANCH 30 34
ATOM     31  C1  BGC B   3      62.287  55.325   9.5120  0.00  0.00     0.000 C
ATOM     32  C2  BGC B   3      62.585  56.793   9.2110  0.00  0.00     0.000 C
ATOM     33  C3  BGC B   3      61.987  57.652  10.3110  0.00  0.00     0.000 C
ATOM     34  C4  BGC B   3      60.493  57.360  10.4550  0.00  0.00     0.000 C
ATOM     35  C5  BGC B   3      60.259  55.867  10.6080  0.00  0.00     0.000 C
ATOM     36  O5  BGC B   3      60.876  55.174   9.5180  0.00  0.00     0.000 O
ATOM     37   O  BGC B   3      63.996  56.998   9.1950  0.00  0.00     0.000 O
ATOM     39  HD  BGC B   3      63.860  57.795   8.8850  0.00  0.00     0.000 HD
ATOM     39   O  BGC B   3      62.201  59.016   9.9830  0.00  0.00     0.000 O
ATOM     41  HD  BGC B   3      62.065  59.813   9.6730  0.00  0.00     0.000 HD
ATOM     41   C  BGC B   3      58.787  55.474  10.6670  0.00  0.00     0.000 C
ATOM     42   O  BGC B   3      58.120  55.916   9.5090  0.00  0.00     0.000 O
ATOM     44  HD  BGC B   3      57.984  56.713   9.1980  0.00  0.00     0.000 HD
BRANCH 31 44
ATOM     44  O4  BGC B   4      62.764  54.572   8.4260  0.00  0.00     0.000 O
BRANCH 44 48
ATOM     45  C1  BGC B   4      64.366  50.898   7.5660  0.00  0.00     0.000 C
ATOM     46  C2  BGC B   4      62.873  50.889   7.8640  0.00  0.00     0.000 C
ATOM     47  C3  BGC B   4      62.333  52.296   7.7730  0.00  0.00     0.000 C
ATOM     48  C4  BGC B   4      63.139  53.234   8.6780  0.00  0.00     0.000 C
ATOM     49  C5  BGC B   4      64.639  53.108   8.3850  0.00  0.00     0.000 C
ATOM     50  O5  BGC B   4      65.043  51.736   8.5040  0.00  0.00     0.000 O
ATOM     51   O  BGC B   4      62.184  50.059   6.9100  0.00  0.00     0.000 O
ATOM     53  HD  BGC B   4      61.987  50.836   6.5830  0.00  0.00     0.000 HD
ATOM     53   O  BGC B   4      60.959  52.290   8.1830  0.00  0.00     0.000 O
ATOM     55  HD  BGC B   4      60.762  53.068   7.8560  0.00  0.00     0.000 HD
ATOM     55   C  BGC B   4      65.530  53.915   9.3120  0.00  0.00     0.000 C
ATOM     56   O  BGC B   4      65.220  53.534  10.6540  0.00  0.00     0.000 O
ATOM     58  HD  BGC B   4      65.023  54.311  10.3270  0.00  0.00     0.000 HD
BRANCH 45 58
ATOM     58  O4  BGC B   5      64.843  49.601   7.9210  0.00  0.00     0.000 O
BRANCH 58 62
ATOM     59  C1  BGC B   5      67.153  46.487   6.4650  0.00  0.00     0.000 C
ATOM     60  C2  BGC B   5      67.926  47.673   7.0050  0.00  0.00     0.000 C
ATOM     61  C3  BGC B   5      67.034  48.542   7.8710  0.00  0.00     0.000 C
ATOM     62  C4  BGC B   5      65.796  48.941   7.0840  0.00  0.00     0.000 C
ATOM     63  C5  BGC B   5      65.104  47.702   6.4980  0.00  0.00     0.000 C
ATOM     64  O5  BGC B   5      66.044  46.981   5.7080  0.00  0.00     0.000 O
ATOM     65   O  BGC B   5      64.433  48.893   4.5930  0.00  0.00     0.000 O
ATOM     67  HD  BGC B   5      64.294  49.701   4.3140  0.00  0.00     0.000 HD
ATOM     67   O  BGC B   5      64.433  48.893   4.5930  0.00  0.00     0.000 O
ATOM     69  HD  BGC B   5      64.294  49.701   4.3140  0.00  0.00     0.000 HD
ENDBRANCH 58 62
ENDBRANCH 45 58
ENDBRANCH 44 48
ENDBRANCH 31 44
ENDBRANCH 30 34
ENDBRANCH 17 30
ENDBRANCH 16 20
ENDBRANCH 1 16
TORSDOF 8
ENDMDL
MODEL 89
REMARK VINA RESULT:      -0.1     36.475     38.271
ROOT
ATOM      1  C1  BGC B   1       8.043  28.294  39.8700  0.00  0.00     0.000 C
ATOM      2  C2  BGC B   1       6.750  28.421  40.6740  0.00  0.00     0.000 C
ATOM      3  C3  BGC B   1       6.316  29.873  40.7370  0.00  0.00     0.000 C
ATOM      4  C4  BGC B   1       7.458  30.756  41.2250  0.00  0.00     0.000 C
ATOM      5  C5  BGC B   1       8.661  30.531  40.3220  0.00  0.00     0.000 C
ATOM      6  O5  BGC B   1       9.031  29.145  40.4350  0.00  0.00     0.000 O
ATOM      7   O  BGC B   1       5.720  27.647  40.0380  0.00  0.00     0.000 O
ATOM      9  HD  BGC B   1       4.899  27.900  40.1490  0.00  0.00     0.000 HD
ATOM      9   O  BGC B   1       5.183  29.980  41.6030  0.00  0.00     0.000 O
ATOM     11  HD  BGC B   1       4.362  30.233  41.7140  0.00  0.00     0.000 HD
ATOM     11   O  BGC B   1       7.064  32.110  41.1750  0.00  0.00     0.000 O
ATOM     13  HD  BGC B   1       6.244  32.364  41.2860  0.00  0.00     0.000 HD
ATOM     13   C  BGC B   1       9.877  31.385  40.6540  0.00  0.00     0.000 C
ATOM     14   O  BGC B   1      10.293  31.233  42.0080  0.00  0.00     0.000 O
ATOM     16  HD  BGC B   1       9.472  31.487  42.1190  0.00  0.00     0.000 HD
ENDROOT
BRANCH 1 16
ATOM     16  O4  BGC B   2       8.522  26.969  40.0920  0.00  0.00     0.000 O
BRANCH 16 20
ATOM     17  C1  BGC B   2      10.516  23.950  38.2360  0.00  0.00     0.000 C
ATOM     18  C2  BGC B   2      11.414  25.099  38.6730  0.00  0.00     0.000 C
ATOM     19  C3  BGC B   2      10.640  25.973  39.6570  0.00  0.00     0.000 C
ATOM     20  C4  BGC B   2       9.320  26.407  39.0540  0.00  0.00     0.000 C
ATOM     21  C5  BGC B   2       8.537  25.237  38.4570  0.00  0.00     0.000 C
ATOM     22  O5  BGC B   2       9.393  24.532  37.5490  0.00  0.00     0.000 O
ATOM     23   O  BGC B   2      12.590  24.587  39.3220  0.00  0.00     0.000 O
ATOM     25  HD  BGC B   2      11.858  24.948  39.6110  0.00  0.00     0.000 HD
ATOM     25   O  BGC B   2      11.418  27.110  40.0110  0.00  0.00     0.000 O
ATOM     27  HD  BGC B   2      10.686  27.471  40.3000  0.00  0.00     0.000 HD
ATOM     27   C  BGC B   2       7.303  25.680  37.6830  0.00  0.00     0.000 C
ATOM     28   O  BGC B   2       7.592  26.601  36.6440  0.00  0.00     0.000 O
ATOM     30  HD  BGC B   2       6.860  26.962  36.9330  0.00  0.00     0.000 HD
BRANCH 17 30
ATOM     30  O4  BGC B   3      11.224  23.231  37.2450  0.00  0.00     0.000 O
BRANCH 30 34
ATOM     31  C1  BGC B   3      11.609  19.394  35.8110  0.00  0.00     0.000 C
ATOM     32  C2  BGC B   3      10.284  20.071  35.4630  0.00  0.00     0.000 C
ATOM     33  C3  BGC B   3      10.423  21.567  35.6870  0.00  0.00     0.000 C
ATOM     34  C4  BGC B   3      10.883  21.847  37.1170  0.00  0.00     0.000 C
ATOM     35  C5  BGC B   3      12.123  21.032  37.4420  0.00  0.00     0.000 C
ATOM     36  O5  BGC B   3      11.864  19.648  37.1830  0.00  0.00     0.000 O
ATOM     37   O  BGC B   3       9.981  19.847  34.0880  0.00  0.00     0.000 O
ATOM     39  HD  BGC B   3       9.195  20.183  34.2230  0.00  0.00     0.000 HD
ATOM     39   O  BGC B   3       9.167  22.178  35.4360  0.00  0.00     0.000 O
ATOM     41  HD  BGC B   3       8.380  22.515  35.5720  0.00  0.00     0.000 HD
ATOM     41   C  BGC B   3      12.601  21.179  38.8830  0.00  0.00     0.000 C
ATOM     42   O  BGC B   3      11.576  20.810  39.7750  0.00  0.00     0.000 O
ATOM     44  HD  BGC B   3      10.789  21.146  39.9100  0.00  0.00     0.000 HD
BRANCH 31 44
ATOM     44  O4  BGC B   4      11.411  18.008  35.6910  0.00  0.00     0.000 O
BRANCH 44 48
ATOM     45  C1  BGC B   4      13.441  14.585  34.7110  0.00  0.00     0.000 C
ATOM     46  C2  BGC B   4      13.773  15.152  36.0830  0.00  0.00     0.000 C
ATOM     47  C3  BGC B   4      12.712  16.146  36.4870  0.00  0.00     0.000 C
ATOM     48  C4  BGC B   4      12.543  17.213  35.4010  0.00  0.00     0.000 C
ATOM     49  C5  BGC B   4      12.313  16.559  34.0330  0.00  0.00     0.000 C
ATOM     50  O5  BGC B   4      13.379  15.641  33.7500  0.00  0.00     0.000 O
ATOM     51   O  BGC B   4      13.820  14.093  37.0570  0.00  0.00     0.000 O
ATOM     53  HD  BGC B   4      13.042  14.420  37.2480  0.00  0.00     0.000 HD
ATOM     53   O  BGC B   4      13.106  16.768  37.7190  0.00  0.00     0.000 O
ATOM     55  HD  BGC B   4      12.328  17.096  37.9100  0.00  0.00     0.000 HD
ATOM     55   C  BGC B   4      12.248  17.536  32.8730  0.00  0.00     0.000 C
ATOM     56   O  BGC B   4      13.447  18.313  32.8910  0.00  0.00     0.000 O
ATOM     58  HD  BGC B   4      12.668  18.641  33.0830  0.00  0.00     0.000 HD
BRANCH 45 58
ATOM     58  O4  BGC B   5      14.601  13.865  34.2930  0.00  0.00     0.000 O
BRANCH 58 62
ATOM     59  C1  BGC B   5      15.761  10.224  32.6990  0.00  0.00     0.000 C
ATOM     60  C2  BGC B   5      15.152  11.201  31.7130  0.00  0.00     0.000 C
ATOM     61  C3  BGC B   5      15.153  12.605  32.2860  0.00  0.00     0.000 C
ATOM     62  C4  BGC B   5      14.456  12.604  33.6370  0.00  0.00     0.000 C
ATOM     63  C5  BGC B   5      15.067  11.539  34.5600  0.00  0.00     0.000 C
ATOM     64  O5  BGC B   5      15.001  10.274  33.9100  0.00  0.00     0.000 O
ATOM     65   O  BGC B   5      12.991  11.120  35.5650  0.00  0.00     0.000 O
ATOM     67  HD  BGC B   5      12.216  11.484  35.6940  0.00  0.00     0.000 HD
ATOM     67   O  BGC B   5      12.991  11.120  35.5650  0.00  0.00     0.000 O
ATOM     69  HD  BGC B   5      12.216  11.484  35.6940  0.00  0.00     0.000 HD
ENDBRANCH 58 62
ENDBRANCH 45 58
ENDBRANCH 44 48
ENDBRANCH 31 44
ENDBRANCH 30 34
ENDBRANCH 17 30
ENDBRANCH 16 20
ENDBRANCH 1 16
TORSDOF 8
ENDMDL
MODEL 90
REMARK VINA RESULT:      -0.1     33.328     38.514
ROOT
ATOM      1  C1  BGC B   1      26.678  23.016  41.4220  0.00  0.00     0.000 C
ATOM      2  C2  BGC B   1      26.635  24.429  42.0020  0.00  0.00     0.000 C
ATOM      3  C3  BGC B   1      26.827  24.380  43.5050  0.00  0.00     0.000 C
ATOM      4  C4  BGC B   1      25.849  23.402  44.1430  0.00  0.00     0.000 C
ATOM      5  C5  BGC B   1      26.021  22.045  43.4750  0.00  0.00     0.000 C
ATOM      6  O5  BGC B   1      25.710  22.210  42.0790  0.00  0.00     0.000 O
ATOM      7   O  BGC B   1      27.687  25.213  41.4150  0.00  0.00     0.000 O
ATOM      9  HD  BGC B   1      28.008  25.868  41.8820  0.00  0.00     0.000 HD
ATOM      9   O  BGC B   1      26.650  25.697  44.0370  0.00  0.00     0.000 O
ATOM     11  HD  BGC B   1      26.972  26.352  44.5030  0.00  0.00     0.000 HD
ATOM     11   O  BGC B   1      26.117  23.295  45.5240  0.00  0.00     0.000 O
ATOM     13  HD  BGC B   1      26.438  23.951  45.9900  0.00  0.00     0.000 HD
ATOM     13   C  BGC B   1      25.140  20.939  44.0390  0.00  0.00     0.000 C
ATOM     14   O  BGC B   1      23.758  21.283  44.0180  0.00  0.00     0.000 O
ATOM     16  HD  BGC B   1      24.079  21.938  44.4840  0.00  0.00     0.000 HD
ENDROOT
BRANCH 1 16
ATOM     16  O4  BGC B   2      26.219  23.124  40.0760  0.00  0.00     0.000 O
BRANCH 16 20
ATOM     17  C1  BGC B   2      26.761  21.502  36.3860  0.00  0.00     0.000 C
ATOM     18  C2  BGC B   2      25.952  20.622  37.3280  0.00  0.00     0.000 C
ATOM     19  C3  BGC B   2      25.509  21.467  38.5200  0.00  0.00     0.000 C
ATOM     20  C4  BGC B   2      26.703  22.140  39.1660  0.00  0.00     0.000 C
ATOM     21  C5  BGC B   2      27.591  22.855  38.1470  0.00  0.00     0.000 C
ATOM     22  O5  BGC B   2      27.931  21.927  37.1090  0.00  0.00     0.000 O
ATOM     23   O  BGC B   2      24.789  20.114  36.6540  0.00  0.00     0.000 O
ATOM     25  HD  BGC B   2      24.915  20.748  37.2300  0.00  0.00     0.000 HD
ATOM     25   O  BGC B   2      24.831  20.650  39.4680  0.00  0.00     0.000 O
ATOM     27  HD  BGC B   2      24.957  21.284  40.0440  0.00  0.00     0.000 HD
ATOM     27   C  BGC B   2      28.890  23.372  38.7510  0.00  0.00     0.000 C
ATOM     28   O  BGC B   2      29.659  22.361  39.3830  0.00  0.00     0.000 O
ATOM     30  HD  BGC B   2      29.785  22.995  39.9600  0.00  0.00     0.000 HD
BRANCH 17 30
ATOM     30  O4  BGC B   3      27.247  20.661  35.3570  0.00  0.00     0.000 O
BRANCH 30 34
ATOM     31  C1  BGC B   3      28.212  20.814  31.3610  0.00  0.00     0.000 C
ATOM     32  C2  BGC B   3      29.191  21.545  32.2780  0.00  0.00     0.000 C
ATOM     33  C3  BGC B   3      28.960  21.088  33.7070  0.00  0.00     0.000 C
ATOM     34  C4  BGC B   3      27.498  21.298  34.1000  0.00  0.00     0.000 C
ATOM     35  C5  BGC B   3      26.578  20.668  33.0690  0.00  0.00     0.000 C
ATOM     36  O5  BGC B   3      26.902  21.174  31.7700  0.00  0.00     0.000 O
ATOM     37   O  BGC B   3      30.527  21.214  31.9080  0.00  0.00     0.000 O
ATOM     39  HD  BGC B   3      30.812  21.829  32.4480  0.00  0.00     0.000 HD
ATOM     39   O  BGC B   3      29.819  21.828  34.5610  0.00  0.00     0.000 O
ATOM     41  HD  BGC B   3      30.104  22.443  35.1000  0.00  0.00     0.000 HD
ATOM     41   C  BGC B   3      25.096  20.909  33.3320  0.00  0.00     0.000 C
ATOM     42   O  BGC B   3      24.830  22.290  33.3850  0.00  0.00     0.000 O
ATOM     44  HD  BGC B   3      25.114  22.905  33.9240  0.00  0.00     0.000 HD
BRANCH 31 44
ATOM     44  O4  BGC B   4      28.384  21.336  30.0680  0.00  0.00     0.000 O
BRANCH 44 48
ATOM     45  C1  BGC B   4      28.151  20.211  26.1330  0.00  0.00     0.000 C
ATOM     46  C2  BGC B   4      26.807  20.415  26.8190  0.00  0.00     0.000 C
ATOM     47  C3  BGC B   4      27.008  21.189  28.0990  0.00  0.00     0.000 C
ATOM     48  C4  BGC B   4      28.053  20.498  28.9790  0.00  0.00     0.000 C
ATOM     49  C5  BGC B   4      29.340  20.237  28.1860  0.00  0.00     0.000 C
ATOM     50  O5  BGC B   4      29.033  19.493  26.9970  0.00  0.00     0.000 O
ATOM     51   O  BGC B   4      25.921  21.154  25.9570  0.00  0.00     0.000 O
ATOM     53  HD  BGC B   4      26.151  21.792  26.4950  0.00  0.00     0.000 HD
ATOM     53   O  BGC B   4      25.757  21.260  28.7970  0.00  0.00     0.000 O
ATOM     55  HD  BGC B   4      25.988  21.898  29.3350  0.00  0.00     0.000 HD
ATOM     55   C  BGC B   4      30.395  19.450  28.9420  0.00  0.00     0.000 C
ATOM     56   O  BGC B   4      29.793  18.233  29.3880  0.00  0.00     0.000 O
ATOM     58  HD  BGC B   4      30.024  18.871  29.9270  0.00  0.00     0.000 HD
BRANCH 45 58
ATOM     58  O4  BGC B   5      27.917  19.267  25.0880  0.00  0.00     0.000 O
BRANCH 58 62
ATOM     59  C1  BGC B   5      28.615  18.669  21.0510  0.00  0.00     0.000 C
ATOM     60  C2  BGC B   5      29.788  18.375  21.9640  0.00  0.00     0.000 C
ATOM     61  C3  BGC B   5      29.321  18.220  23.3990  0.00  0.00     0.000 C
ATOM     62  C4  BGC B   5      28.533  19.453  23.8120  0.00  0.00     0.000 C
ATOM     63  C5  BGC B   5      27.411  19.742  22.8040  0.00  0.00     0.000 C
ATOM     64  O5  BGC B   5      27.981  19.869  21.5060  0.00  0.00     0.000 O
ATOM     65   O  BGC B   5      27.634  22.055  23.1160  0.00  0.00     0.000 O
ATOM     67  HD  BGC B   5      27.935  22.635  23.6840  0.00  0.00     0.000 HD
ATOM     67   O  BGC B   5      27.634  22.055  23.1160  0.00  0.00     0.000 O
ATOM     69  HD  BGC B   5      27.935  22.635  23.6840  0.00  0.00     0.000 HD
ENDBRANCH 58 62
ENDBRANCH 45 58
ENDBRANCH 44 48
ENDBRANCH 31 44
ENDBRANCH 30 34
ENDBRANCH 17 30
ENDBRANCH 16 20
ENDBRANCH 1 16
TORSDOF 8
ENDMDL
MODEL 91
REMARK VINA RESULT:      -0.1     82.456     88.729
ROOT
ATOM      1  C1  BGC B   1      51.922  55.099  69.9520  0.00  0.00     0.000 C
ATOM      2  C2  BGC B   1      52.325  55.625  68.5760  0.00  0.00     0.000 C
ATOM      3  C3  BGC B   1      53.369  56.715  68.7200  0.00  0.00     0.000 C
ATOM      4  C4  BGC B   1      52.900  57.786  69.6970  0.00  0.00     0.000 C
ATOM      5  C5  BGC B   1      52.552  57.114  71.0170  0.00  0.00     0.000 C
ATOM      6  O5  BGC B   1      51.484  56.184  70.7590  0.00  0.00     0.000 O
ATOM      7   O  BGC B   1      52.871  54.547  67.7980  0.00  0.00     0.000 O
ATOM      9  HD  BGC B   1      53.448  54.746  67.1840  0.00  0.00     0.000 HD
ATOM      9   O  BGC B   1      53.629  57.280  67.4310  0.00  0.00     0.000 O
ATOM     11  HD  BGC B   1      54.207  57.479  66.8170  0.00  0.00     0.000 HD
ATOM     11   O  BGC B   1      53.929  58.731  69.8950  0.00  0.00     0.000 O
ATOM     13  HD  BGC B   1      54.506  58.930  69.2810  0.00  0.00     0.000 HD
ATOM     13   C  BGC B   1      52.109  58.064  72.1210  0.00  0.00     0.000 C
ATOM     14   O  BGC B   1      51.011  58.880  71.7250  0.00  0.00     0.000 O
ATOM     16  HD  BGC B   1      51.589  59.079  71.1110  0.00  0.00     0.000 HD
ENDROOT
BRANCH 1 16
ATOM     16  O4  BGC B   2      50.761  54.296  69.7470  0.00  0.00     0.000 O
BRANCH 16 20
ATOM     17  C1  BGC B   2      48.898  50.971  71.1650  0.00  0.00     0.000 C
ATOM     18  C2  BGC B   2      48.755  52.185  72.0710  0.00  0.00     0.000 C
ATOM     19  C3  BGC B   2      49.163  53.429  71.2840  0.00  0.00     0.000 C
ATOM     20  C4  BGC B   2      50.546  53.251  70.6920  0.00  0.00     0.000 C
ATOM     21  C5  BGC B   2      50.696  51.923  69.9490  0.00  0.00     0.000 C
ATOM     22  O5  BGC B   2      50.292  50.863  70.8240  0.00  0.00     0.000 O
ATOM     23   O  BGC B   2      47.390  52.326  72.4980  0.00  0.00     0.000 O
ATOM     25  HD  BGC B   2      47.874  52.730  71.9040  0.00  0.00     0.000 HD
ATOM     25   O  BGC B   2      49.132  54.571  72.1320  0.00  0.00     0.000 O
ATOM     27  HD  BGC B   2      49.616  54.975  71.5380  0.00  0.00     0.000 HD
ATOM     27   C  BGC B   2      52.129  51.645  69.5130  0.00  0.00     0.000 C
ATOM     28   O  BGC B   2      53.057  51.665  70.5850  0.00  0.00     0.000 O
ATOM     30  HD  BGC B   2      53.541  52.069  69.9910  0.00  0.00     0.000 HD
BRANCH 17 30
ATOM     30  O4  BGC B   3      48.622  49.833  71.9600  0.00  0.00     0.000 O
BRANCH 30 34
ATOM     31  C1  BGC B   3      47.055  46.046  71.6000  0.00  0.00     0.000 C
ATOM     32  C2  BGC B   3      48.428  46.229  70.9550  0.00  0.00     0.000 C
ATOM     33  C3  BGC B   3      49.057  47.504  71.4890  0.00  0.00     0.000 C
ATOM     34  C4  BGC B   3      48.122  48.691  71.2580  0.00  0.00     0.000 C
ATOM     35  C5  BGC B   3      46.736  48.385  71.7970  0.00  0.00     0.000 C
ATOM     36  O5  BGC B   3      46.262  47.161  71.2250  0.00  0.00     0.000 O
ATOM     37   O  BGC B   3      49.268  45.131  71.3040  0.00  0.00     0.000 O
ATOM     39  HD  BGC B   3      49.851  45.416  70.7310  0.00  0.00     0.000 HD
ATOM     39   O  BGC B   3      50.296  47.706  70.8270  0.00  0.00     0.000 O
ATOM     41  HD  BGC B   3      50.880  47.991  70.2540  0.00  0.00     0.000 HD
ATOM     41   C  BGC B   3      45.710  49.480  71.5280  0.00  0.00     0.000 C
ATOM     42   O  BGC B   3      45.609  49.721  70.1440  0.00  0.00     0.000 O
ATOM     44  HD  BGC B   3      46.193  50.006  69.5710  0.00  0.00     0.000 HD
BRANCH 31 44
ATOM     44  O4  BGC B   4      46.464  44.918  71.0080  0.00  0.00     0.000 O
BRANCH 44 48
ATOM     45  C1  BGC B   4      43.892  41.849  71.8860  0.00  0.00     0.000 C
ATOM     46  C2  BGC B   4      43.227  43.207  71.7060  0.00  0.00     0.000 C
ATOM     47  C3  BGC B   4      44.184  44.147  71.0150  0.00  0.00     0.000 C
ATOM     48  C4  BGC B   4      45.513  44.206  71.7730  0.00  0.00     0.000 C
ATOM     49  C5  BGC B   4      46.065  42.793  72.0030  0.00  0.00     0.000 C
ATOM     50  O5  BGC B   4      45.080  41.990  72.6680  0.00  0.00     0.000 O
ATOM     51   O  BGC B   4      42.039  43.071  70.9040  0.00  0.00     0.000 O
ATOM     53  HD  BGC B   4      42.574  43.393  70.3030  0.00  0.00     0.000 HD
ATOM     53   O  BGC B   4      43.594  45.455  70.9690  0.00  0.00     0.000 O
ATOM     55  HD  BGC B   4      44.129  45.776  70.3690  0.00  0.00     0.000 HD
ATOM     55   C  BGC B   4      47.325  42.742  72.8490  0.00  0.00     0.000 C
ATOM     56   O  BGC B   4      47.048  43.408  74.0830  0.00  0.00     0.000 O
ATOM     58  HD  BGC B   4      47.583  43.729  73.4820  0.00  0.00     0.000 HD
BRANCH 45 58
ATOM     58  O4  BGC B   5      43.041  41.110  72.7620  0.00  0.00     0.000 O
BRANCH 58 62
ATOM     59  C1  BGC B   5      41.179  37.428  73.1170  0.00  0.00     0.000 C
ATOM     60  C2  BGC B   5      42.649  37.452  73.4870  0.00  0.00     0.000 C
ATOM     61  C3  BGC B   5      43.115  38.876  73.7230  0.00  0.00     0.000 C
ATOM     62  C4  BGC B   5      42.789  39.726  72.5060  0.00  0.00     0.000 C
ATOM     63  C5  BGC B   5      41.305  39.596  72.1360  0.00  0.00     0.000 C
ATOM     64  O5  BGC B   5      40.999  38.219  71.9380  0.00  0.00     0.000 O
ATOM     65   O  BGC B   5      41.784  39.808  69.8510  0.00  0.00     0.000 O
ATOM     67  HD  BGC B   5      42.392  40.108  69.3130  0.00  0.00     0.000 HD
ATOM     67   O  BGC B   5      41.784  39.808  69.8510  0.00  0.00     0.000 O
ATOM     69  HD  BGC B   5      42.392  40.108  69.3130  0.00  0.00     0.000 HD
ENDBRANCH 58 62
ENDBRANCH 45 58
ENDBRANCH 44 48
ENDBRANCH 31 44
ENDBRANCH 30 34
ENDBRANCH 17 30
ENDBRANCH 16 20
ENDBRANCH 1 16
TORSDOF 8
ENDMDL
MODEL 92
REMARK VINA RESULT:      -0.1     68.128     70.996
ROOT
ATOM      1  C1  BGC B   1      55.876  27.314  55.6430  0.00  0.00     0.000 C
ATOM      2  C2  BGC B   1      57.013  27.096  56.6390  0.00  0.00     0.000 C
ATOM      3  C3  BGC B   1      58.322  26.894  55.9000  0.00  0.00     0.000 C
ATOM      4  C4  BGC B   1      58.183  25.803  54.8460  0.00  0.00     0.000 C
ATOM      5  C5  BGC B   1      57.027  26.167  53.9250  0.00  0.00     0.000 C
ATOM      6  O5  BGC B   1      55.836  26.225  54.7320  0.00  0.00     0.000 O
ATOM      7   O  BGC B   1      57.123  28.249  57.4910  0.00  0.00     0.000 O
ATOM      9  HD  BGC B   1      57.900  28.427  57.8290  0.00  0.00     0.000 HD
ATOM      9   O  BGC B   1      59.341  26.561  56.8470  0.00  0.00     0.000 O
ATOM     11  HD  BGC B   1      60.118  26.739  57.1860  0.00  0.00     0.000 HD
ATOM     11   O  BGC B   1      59.378  25.708  54.1030  0.00  0.00     0.000 O
ATOM     13  HD  BGC B   1      60.155  25.885  54.4410  0.00  0.00     0.000 HD
ATOM     13   C  BGC B   1      56.790  25.192  52.7810  0.00  0.00     0.000 C
ATOM     14   O  BGC B   1      56.602  23.856  53.2380  0.00  0.00     0.000 O
ATOM     16  HD  BGC B   1      57.379  24.033  53.5770  0.00  0.00     0.000 HD
ENDROOT
BRANCH 1 16
ATOM     16  O4  BGC B   2      54.666  27.217  56.3920  0.00  0.00     0.000 O
BRANCH 16 20
ATOM     17  C1  BGC B   2      50.894  28.727  56.5590  0.00  0.00     0.000 C
ATOM     18  C2  BGC B   2      51.100  27.721  55.4370  0.00  0.00     0.000 C
ATOM     19  C3  BGC B   2      52.403  26.967  55.6950  0.00  0.00     0.000 C
ATOM     20  C4  BGC B   2      53.550  27.940  55.8790  0.00  0.00     0.000 C
ATOM     21  C5  BGC B   2      53.220  29.046  56.8820  0.00  0.00     0.000 C
ATOM     22  O5  BGC B   2      51.986  29.662  56.4920  0.00  0.00     0.000 O
ATOM     23   O  BGC B   2      50.012  26.782  55.4080  0.00  0.00     0.000 O
ATOM     25  HD  BGC B   2      50.827  26.742  55.6980  0.00  0.00     0.000 HD
ATOM     25   O  BGC B   2      52.674  26.085  54.6120  0.00  0.00     0.000 O
ATOM     27  HD  BGC B   2      53.489  26.044  54.9020  0.00  0.00     0.000 HD
ATOM     27   C  BGC B   2      54.285  30.134  56.9370  0.00  0.00     0.000 C
ATOM     28   O  BGC B   2      54.542  30.734  55.6770  0.00  0.00     0.000 O
ATOM     30  HD  BGC B   2      55.357  30.693  55.9670  0.00  0.00     0.000 HD
BRANCH 17 30
ATOM     30  O4  BGC B   3      49.742  29.480  56.2280  0.00  0.00     0.000 O
BRANCH 30 34
ATOM     31  C1  BGC B   3      46.631  31.449  58.0630  0.00  0.00     0.000 C
ATOM     32  C2  BGC B   3      47.989  32.136  58.2050  0.00  0.00     0.000 C
ATOM     33  C3  BGC B   3      48.944  31.552  57.1790  0.00  0.00     0.000 C
ATOM     34  C4  BGC B   3      49.021  30.033  57.3330  0.00  0.00     0.000 C
ATOM     35  C5  BGC B   3      47.627  29.430  57.3270  0.00  0.00     0.000 C
ATOM     36  O5  BGC B   3      46.828  30.069  58.3280  0.00  0.00     0.000 O
ATOM     37   O  BGC B   3      47.845  33.531  57.9460  0.00  0.00     0.000 O
ATOM     39  HD  BGC B   3      48.657  33.649  58.2220  0.00  0.00     0.000 HD
ATOM     39   O  BGC B   3      50.222  32.140  57.3690  0.00  0.00     0.000 O
ATOM     41  HD  BGC B   3      51.035  32.258  57.6460  0.00  0.00     0.000 HD
ATOM     41   C  BGC B   3      47.603  27.925  57.5670  0.00  0.00     0.000 C
ATOM     42   O  BGC B   3      48.217  27.619  58.7960  0.00  0.00     0.000 O
ATOM     44  HD  BGC B   3      49.029  27.737  59.0730  0.00  0.00     0.000 HD
BRANCH 31 44
ATOM     44  O4  BGC B   4      45.808  31.939  59.0900  0.00  0.00     0.000 O
BRANCH 44 48
ATOM     45  C1  BGC B   4      41.871  32.763  59.8840  0.00  0.00     0.000 C
ATOM     46  C2  BGC B   4      42.226  31.282  59.8860  0.00  0.00     0.000 C
ATOM     47  C3  BGC B   4      43.724  31.124  59.9780  0.00  0.00     0.000 C
ATOM     48  C4  BGC B   4      44.413  31.924  58.8680  0.00  0.00     0.000 C
ATOM     49  C5  BGC B   4      43.926  33.378  58.8690  0.00  0.00     0.000 C
ATOM     50  O5  BGC B   4      42.494  33.410  58.7730  0.00  0.00     0.000 O
ATOM     51   O  BGC B   4      41.614  30.630  61.0150  0.00  0.00     0.000 O
ATOM     53  HD  BGC B   4      42.423  30.697  61.3170  0.00  0.00     0.000 HD
ATOM     53   O  BGC B   4      44.051  29.733  59.8480  0.00  0.00     0.000 O
ATOM     55  HD  BGC B   4      44.860  29.800  60.1500  0.00  0.00     0.000 HD
ATOM     55   C  BGC B   4      44.466  34.222  57.7280  0.00  0.00     0.000 C
ATOM     56   O  BGC B   4      44.143  33.558  56.5050  0.00  0.00     0.000 O
ATOM     58  HD  BGC B   4      44.952  33.624  56.8070  0.00  0.00     0.000 HD
BRANCH 45 58
ATOM     58  O4  BGC B   5      40.489  32.833  59.5380  0.00  0.00     0.000 O
BRANCH 58 62
ATOM     59  C1  BGC B   5      36.933  34.578  60.7450  0.00  0.00     0.000 C
ATOM     60  C2  BGC B   5      37.869  35.481  59.9680  0.00  0.00     0.000 C
ATOM     61  C3  BGC B   5      38.912  34.661  59.2320  0.00  0.00     0.000 C
ATOM     62  C4  BGC B   5      39.633  33.755  60.2170  0.00  0.00     0.000 C
ATOM     63  C5  BGC B   5      38.625  32.926  61.0270  0.00  0.00     0.000 C
ATOM     64  O5  BGC B   5      37.711  33.810  61.6670  0.00  0.00     0.000 O
ATOM     65   O  BGC B   5      39.998  32.986  62.9260  0.00  0.00     0.000 O
ATOM     67  HD  BGC B   5      40.822  33.110  63.1610  0.00  0.00     0.000 HD
ATOM     67   O  BGC B   5      39.998  32.986  62.9260  0.00  0.00     0.000 O
ATOM     69  HD  BGC B   5      40.822  33.110  63.1610  0.00  0.00     0.000 HD
ENDBRANCH 58 62
ENDBRANCH 45 58
ENDBRANCH 44 48
ENDBRANCH 31 44
ENDBRANCH 30 34
ENDBRANCH 17 30
ENDBRANCH 16 20
ENDBRANCH 1 16
TORSDOF 8
ENDMDL
MODEL 93
REMARK VINA RESULT:      -0.1     68.448     71.387
ROOT
ATOM      1  C1  BGC B   1      55.876  27.314  55.6430  0.00  0.00     0.000 C
ATOM      2  C2  BGC B   1      57.177  27.382  56.4400  0.00  0.00     0.000 C
ATOM      3  C3  BGC B   1      58.365  27.410  55.4970  0.00  0.00     0.000 C
ATOM      4  C4  BGC B   1      58.289  26.260  54.5000  0.00  0.00     0.000 C
ATOM      5  C5  BGC B   1      56.951  26.336  53.7780  0.00  0.00     0.000 C
ATOM      6  O5  BGC B   1      55.918  26.194  54.7700  0.00  0.00     0.000 O
ATOM      7   O  BGC B   1      57.180  28.575  57.2410  0.00  0.00     0.000 O
ATOM      9  HD  BGC B   1      57.948  28.923  57.4420  0.00  0.00     0.000 HD
ATOM      9   O  BGC B   1      59.568  27.338  56.2670  0.00  0.00     0.000 O
ATOM     11  HD  BGC B   1      60.335  27.686  56.4680  0.00  0.00     0.000 HD
ATOM     11   O  BGC B   1      59.344  26.369  53.5700  0.00  0.00     0.000 O
ATOM     13  HD  BGC B   1      60.111  26.717  53.7710  0.00  0.00     0.000 HD
ATOM     13   C  BGC B   1      56.743  25.275  52.7070  0.00  0.00     0.000 C
ATOM     14   O  BGC B   1      56.910  23.954  53.2120  0.00  0.00     0.000 O
ATOM     16  HD  BGC B   1      57.677  24.302  53.4140  0.00  0.00     0.000 HD
ENDROOT
BRANCH 1 16
ATOM     16  O4  BGC B   2      54.847  27.014  56.5840  0.00  0.00     0.000 O
BRANCH 16 20
ATOM     17  C1  BGC B   2      50.920  27.739  57.3500  0.00  0.00     0.000 C
ATOM     18  C2  BGC B   2      51.149  26.739  56.2270  0.00  0.00     0.000 C
ATOM     19  C3  BGC B   2      52.604  26.278  56.2780  0.00  0.00     0.000 C
ATOM     20  C4  BGC B   2      53.538  27.470  56.2510  0.00  0.00     0.000 C
ATOM     21  C5  BGC B   2      53.151  28.537  57.2750  0.00  0.00     0.000 C
ATOM     22  O5  BGC B   2      51.770  28.871  57.0860  0.00  0.00     0.000 O
ATOM     23   O  BGC B   2      50.288  25.600  56.3970  0.00  0.00     0.000 O
ATOM     25  HD  BGC B   2      51.130  25.740  56.5470  0.00  0.00     0.000 HD
ATOM     25   O  BGC B   2      52.876  25.413  55.1810  0.00  0.00     0.000 O
ATOM     27  HD  BGC B   2      53.717  25.553  55.3320  0.00  0.00     0.000 HD
ATOM     27   C  BGC B   2      53.962  29.819  57.1330  0.00  0.00     0.000 C
ATOM     28   O  BGC B   2      53.886  30.392  55.8380  0.00  0.00     0.000 O
ATOM     30  HD  BGC B   2      54.727  30.532  55.9890  0.00  0.00     0.000 HD
BRANCH 17 30
ATOM     30  O4  BGC B   3      49.600  28.227  57.2020  0.00  0.00     0.000 O
BRANCH 30 34
ATOM     31  C1  BGC B   3      46.481  29.620  59.4940  0.00  0.00     0.000 C
ATOM     32  C2  BGC B   3      47.671  30.573  59.3960  0.00  0.00     0.000 C
ATOM     33  C3  BGC B   3      48.552  30.142  58.2360  0.00  0.00     0.000 C
ATOM     34  C4  BGC B   3      48.965  28.680  58.4020  0.00  0.00     0.000 C
ATOM     35  C5  BGC B   3      47.744  27.809  58.6380  0.00  0.00     0.000 C
ATOM     36  O5  BGC B   3      46.999  28.324  59.7470  0.00  0.00     0.000 O
ATOM     37   O  BGC B   3      47.203  31.895  59.1390  0.00  0.00     0.000 O
ATOM     39  HD  BGC B   3      48.006  32.189  59.2740  0.00  0.00     0.000 HD
ATOM     39   O  BGC B   3      49.693  30.985  58.2000  0.00  0.00     0.000 O
ATOM     41  HD  BGC B   3      50.497  31.278  58.3350  0.00  0.00     0.000 HD
ATOM     41   C  BGC B   3      48.070  26.344  58.9060  0.00  0.00     0.000 C
ATOM     42   O  BGC B   3      48.922  26.232  60.0210  0.00  0.00     0.000 O
ATOM     44  HD  BGC B   3      49.725  26.526  60.1560  0.00  0.00     0.000 HD
BRANCH 31 44
ATOM     44  O4  BGC B   4      45.748  29.987  60.6350  0.00  0.00     0.000 O
BRANCH 44 48
ATOM     45  C1  BGC B   4      41.904  30.040  62.0580  0.00  0.00     0.000 C
ATOM     46  C2  BGC B   4      42.554  28.664  62.0270  0.00  0.00     0.000 C
ATOM     47  C3  BGC B   4      44.047  28.816  61.8720  0.00  0.00     0.000 C
ATOM     48  C4  BGC B   4      44.369  29.679  60.6480  0.00  0.00     0.000 C
ATOM     49  C5  BGC B   4      43.598  31.004  60.7050  0.00  0.00     0.000 C
ATOM     50  O5  BGC B   4      42.194  30.741  60.8470  0.00  0.00     0.000 O
ATOM     51   O  BGC B   4      42.278  27.961  63.2540  0.00  0.00     0.000 O
ATOM     53  HD  BGC B   4      43.093  28.205  63.4160  0.00  0.00     0.000 HD
ATOM     53   O  BGC B   4      44.630  27.515  61.7130  0.00  0.00     0.000 O
ATOM     55  HD  BGC B   4      45.445  27.758  61.8750  0.00  0.00     0.000 HD
ATOM     55   C  BGC B   4      43.763  31.879  59.4750  0.00  0.00     0.000 C
ATOM     56   O  BGC B   4      43.394  31.102  58.3350  0.00  0.00     0.000 O
ATOM     58  HD  BGC B   4      44.209  31.345  58.4960  0.00  0.00     0.000 HD
BRANCH 45 58
ATOM     58  O4  BGC B   5      40.500  29.813  61.9460  0.00  0.00     0.000 O
BRANCH 58 62
ATOM     59  C1  BGC B   5      36.898  30.866  63.6960  0.00  0.00     0.000 C
ATOM     60  C2  BGC B   5      37.491  31.897  62.7580  0.00  0.00     0.000 C
ATOM     61  C3  BGC B   5      38.550  31.267  61.8740  0.00  0.00     0.000 C
ATOM     62  C4  BGC B   5      39.591  30.577  62.7410  0.00  0.00     0.000 C
ATOM     63  C5  BGC B   5      38.919  29.605  63.7220  0.00  0.00     0.000 C
ATOM     64  O5  BGC B   5      37.955  30.318  64.4900  0.00  0.00     0.000 O
ATOM     65   O  BGC B   5      40.534  30.039  65.3650  0.00  0.00     0.000 O
ATOM     67  HD  BGC B   5      41.341  30.338  65.4580  0.00  0.00     0.000 HD
ATOM     67   O  BGC B   5      40.534  30.039  65.3650  0.00  0.00     0.000 O
ATOM     69  HD  BGC B   5      41.341  30.338  65.4580  0.00  0.00     0.000 HD
ENDBRANCH 58 62
ENDBRANCH 45 58
ENDBRANCH 44 48
ENDBRANCH 31 44
ENDBRANCH 30 34
ENDBRANCH 17 30
ENDBRANCH 16 20
ENDBRANCH 1 16
TORSDOF 8
ENDMDL
MODEL 94
REMARK VINA RESULT:      -0.1     43.002     46.273
ROOT
ATOM      1  C1  BGC B   1      24.058  11.138  51.9780  0.00  0.00     0.000 C
ATOM      2  C2  BGC B   1      23.755  11.533  53.4220  0.00  0.00     0.000 C
ATOM      3  C3  BGC B   1      23.861  10.320  54.3270  0.00  0.00     0.000 C
ATOM      4  C4  BGC B   1      23.014   9.172  53.7910  0.00  0.00     0.000 C
ATOM      5  C5  BGC B   1      23.441   8.887  52.3580  0.00  0.00     0.000 C
ATOM      6  O5  BGC B   1      23.193  10.079  51.5900  0.00  0.00     0.000 O
ATOM      7   O  BGC B   1      24.702  12.526  53.8500  0.00  0.00     0.000 O
ATOM      9  HD  BGC B   1      24.885  12.569  54.6950  0.00  0.00     0.000 HD
ATOM      9   O  BGC B   1      23.444  10.688  55.6450  0.00  0.00     0.000 O
ATOM     11  HD  BGC B   1      23.628  10.732  56.4900  0.00  0.00     0.000 HD
ATOM     11   O  BGC B   1      23.212   8.025  54.5880  0.00  0.00     0.000 O
ATOM     13  HD  BGC B   1      23.396   8.068  55.4330  0.00  0.00     0.000 HD
ATOM     13   C  BGC B   1      22.715   7.725  51.6940  0.00  0.00     0.000 C
ATOM     14   O  BGC B   1      21.300   7.882  51.7230  0.00  0.00     0.000 O
ATOM     16  HD  BGC B   1      21.484   7.926  52.5680  0.00  0.00     0.000 HD
ENDROOT
BRANCH 1 16
ATOM     16  O4  BGC B   2      23.669  12.249  51.1720  0.00  0.00     0.000 O
BRANCH 16 20
ATOM     17  C1  BGC B   2      24.687  14.224  47.7660  0.00  0.00     0.000 C
ATOM     18  C2  BGC B   2      23.990  12.894  47.5170  0.00  0.00     0.000 C
ATOM     19  C3  BGC B   2      23.343  12.435  48.8210  0.00  0.00     0.000 C
ATOM     20  C4  BGC B   2      24.366  12.403  49.9380  0.00  0.00     0.000 C
ATOM     21  C5  BGC B   2      25.173  13.698  50.0250  0.00  0.00     0.000 C
ATOM     22  O5  BGC B   2      25.725  13.980  48.7330  0.00  0.00     0.000 O
ATOM     23   O  BGC B   2      22.971  13.051  46.5150  0.00  0.00     0.000 O
ATOM     25  HD  BGC B   2      22.954  12.985  47.3780  0.00  0.00     0.000 HD
ATOM     25   O  BGC B   2      22.764  11.147  48.6460  0.00  0.00     0.000 O
ATOM     27  HD  BGC B   2      22.747  11.081  49.5090  0.00  0.00     0.000 HD
ATOM     27   C  BGC B   2      26.329  13.612  51.0150  0.00  0.00     0.000 C
ATOM     28   O  BGC B   2      27.223  12.545  50.7440  0.00  0.00     0.000 O
ATOM     30  HD  BGC B   2      27.205  12.480  51.6070  0.00  0.00     0.000 HD
BRANCH 17 30
ATOM     30  O4  BGC B   3      25.367  14.560  46.5710  0.00  0.00     0.000 O
BRANCH 30 34
ATOM     31  C1  BGC B   3      26.526  17.880  44.4360  0.00  0.00     0.000 C
ATOM     32  C2  BGC B   3      27.310  17.651  45.7270  0.00  0.00     0.000 C
ATOM     33  C3  BGC B   3      27.077  16.226  46.1970  0.00  0.00     0.000 C
ATOM     34  C4  BGC B   3      25.580  15.958  46.3480  0.00  0.00     0.000 C
ATOM     35  C5  BGC B   3      24.843  16.342  45.0770  0.00  0.00     0.000 C
ATOM     36  O5  BGC B   3      25.152  17.699  44.7400  0.00  0.00     0.000 O
ATOM     37   O  BGC B   3      28.703  17.820  45.4750  0.00  0.00     0.000 O
ATOM     39  HD  BGC B   3      28.846  17.780  46.3280  0.00  0.00     0.000 HD
ATOM     39   O  BGC B   3      27.745  16.045  47.4370  0.00  0.00     0.000 O
ATOM     41  HD  BGC B   3      27.888  16.006  48.2900  0.00  0.00     0.000 HD
ATOM     41   C  BGC B   3      23.329  16.194  45.1690  0.00  0.00     0.000 C
ATOM     42   O  BGC B   3      22.828  16.973  46.2300  0.00  0.00     0.000 O
ATOM     44  HD  BGC B   3      22.971  16.934  47.0830  0.00  0.00     0.000 HD
BRANCH 31 44
ATOM     44  O4  BGC B   4      26.684  19.232  44.0890  0.00  0.00     0.000 O
BRANCH 44 48
ATOM     45  C1  BGC B   4      26.885  21.664  40.7950  0.00  0.00     0.000 C
ATOM     46  C2  BGC B   4      25.491  21.144  41.1200  0.00  0.00     0.000 C
ATOM     47  C3  BGC B   4      25.470  20.608  42.5300  0.00  0.00     0.000 C
ATOM     48  C4  BGC B   4      26.579  19.568  42.7200  0.00  0.00     0.000 C
ATOM     49  C5  BGC B   4      27.933  20.136  42.2760  0.00  0.00     0.000 C
ATOM     50  O5  BGC B   4      27.839  20.610  40.9250  0.00  0.00     0.000 O
ATOM     51   O  BGC B   4      24.528  22.209  41.0070  0.00  0.00     0.000 O
ATOM     53  HD  BGC B   4      24.603  22.182  41.8690  0.00  0.00     0.000 HD
ATOM     53   O  BGC B   4      24.192  20.004  42.7760  0.00  0.00     0.000 O
ATOM     55  HD  BGC B   4      24.267  19.977  43.6380  0.00  0.00     0.000 HD
ATOM     55   C  BGC B   4      29.076  19.138  42.3190  0.00  0.00     0.000 C
ATOM     56   O  BGC B   4      28.696  18.006  41.5350  0.00  0.00     0.000 O
ATOM     58  HD  BGC B   4      28.770  17.979  42.3970  0.00  0.00     0.000 HD
BRANCH 45 58
ATOM     58  O4  BGC B   5      26.893  21.908  39.3890  0.00  0.00     0.000 O
BRANCH 58 62
ATOM     59  C1  BGC B   5      27.932  24.795  36.6080  0.00  0.00     0.000 C
ATOM     60  C2  BGC B   5      29.085  23.986  37.1670  0.00  0.00     0.000 C
ATOM     61  C3  BGC B   5      28.576  22.720  37.8300  0.00  0.00     0.000 C
ATOM     62  C4  BGC B   5      27.533  23.079  38.8760  0.00  0.00     0.000 C
ATOM     63  C5  BGC B   5      26.436  23.964  38.2650  0.00  0.00     0.000 C
ATOM     64  O5  BGC B   5      27.043  25.113  37.6830  0.00  0.00     0.000 O
ATOM     65   O  BGC B   5      26.168  25.138  40.2770  0.00  0.00     0.000 O
ATOM     67  HD  BGC B   5      26.311  25.064  41.1280  0.00  0.00     0.000 HD
ATOM     67   O  BGC B   5      26.168  25.138  40.2770  0.00  0.00     0.000 O
ATOM     69  HD  BGC B   5      26.311  25.064  41.1280  0.00  0.00     0.000 HD
ENDBRANCH 58 62
ENDBRANCH 45 58
ENDBRANCH 44 48
ENDBRANCH 31 44
ENDBRANCH 30 34
ENDBRANCH 17 30
ENDBRANCH 16 20
ENDBRANCH 1 16
TORSDOF 8
ENDMDL
MODEL 95
REMARK VINA RESULT:      -0.1     42.434     45.735
ROOT
ATOM      1  C1  BGC B   1      24.058  11.138  51.9780  0.00  0.00     0.000 C
ATOM      2  C2  BGC B   1      23.709  11.761  53.3280  0.00  0.00     0.000 C
ATOM      3  C3  BGC B   1      23.614  10.683  54.3900  0.00  0.00     0.000 C
ATOM      4  C4  BGC B   1      22.677   9.567  53.9440  0.00  0.00     0.000 C
ATOM      5  C5  BGC B   1      23.160   9.041  52.6000  0.00  0.00     0.000 C
ATOM      6  O5  BGC B   1      23.103  10.133  51.6650  0.00  0.00     0.000 O
ATOM      7   O  BGC B   1      24.734  12.698  53.6960  0.00  0.00     0.000 O
ATOM      9  HD  BGC B   1      24.866  12.840  54.5400  0.00  0.00     0.000 HD
ATOM      9   O  BGC B   1      23.157  11.274  55.6100  0.00  0.00     0.000 O
ATOM     11  HD  BGC B   1      23.289  11.416  56.4540  0.00  0.00     0.000 HD
ATOM     11   O  BGC B   1      22.687   8.529  54.8990  0.00  0.00     0.000 O
ATOM     13  HD  BGC B   1      22.819   8.671  55.7430  0.00  0.00     0.000 HD
ATOM     13   C  BGC B   1      22.349   7.881  52.0400  0.00  0.00     0.000 C
ATOM     14   O  BGC B   1      20.963   8.190  51.9330  0.00  0.00     0.000 O
ATOM     16  HD  BGC B   1      21.095   8.332  52.7770  0.00  0.00     0.000 HD
ENDROOT
BRANCH 1 16
ATOM     16  O4  BGC B   2      23.855  12.160  51.0040  0.00  0.00     0.000 O
BRANCH 16 20
ATOM     17  C1  BGC B   2      25.315  13.519  47.4600  0.00  0.00     0.000 C
ATOM     18  C2  BGC B   2      24.487  12.249  47.3330  0.00  0.00     0.000 C
ATOM     19  C3  BGC B   2      23.706  12.048  48.6300  0.00  0.00     0.000 C
ATOM     20  C4  BGC B   2      24.643  12.064  49.8200  0.00  0.00     0.000 C
ATOM     21  C5  BGC B   2      25.588  13.266  49.8010  0.00  0.00     0.000 C
ATOM     22  O5  BGC B   2      26.252  13.304  48.5320  0.00  0.00     0.000 O
ATOM     23   O  BGC B   2      23.561  12.370  46.2410  0.00  0.00     0.000 O
ATOM     25  HD  BGC B   2      23.480  12.429  47.1010  0.00  0.00     0.000 HD
ATOM     25   O  BGC B   2      22.994  10.817  48.5800  0.00  0.00     0.000 O
ATOM     27  HD  BGC B   2      22.913  10.875  49.4410  0.00  0.00     0.000 HD
ATOM     27   C  BGC B   2      26.659  13.198  50.8830  0.00  0.00     0.000 C
ATOM     28   O  BGC B   2      27.438  12.014  50.8280  0.00  0.00     0.000 O
ATOM     30  HD  BGC B   2      27.357  12.073  51.6890  0.00  0.00     0.000 HD
BRANCH 17 30
ATOM     30  O4  BGC B   3      26.106  13.610  46.2900  0.00  0.00     0.000 O
BRANCH 30 34
ATOM     31  C1  BGC B   3      27.781  16.456  43.8360  0.00  0.00     0.000 C
ATOM     32  C2  BGC B   3      28.447  16.328  45.2060  0.00  0.00     0.000 C
ATOM     33  C3  BGC B   3      28.019  15.016  45.8390  0.00  0.00     0.000 C
ATOM     34  C4  BGC B   3      26.494  14.932  45.9030  0.00  0.00     0.000 C
ATOM     35  C5  BGC B   3      25.892  15.211  44.5370  0.00  0.00     0.000 C
ATOM     36  O5  BGC B   3      26.378  16.466  44.0490  0.00  0.00     0.000 O
ATOM     37   O  BGC B   3      29.863  16.312  45.0460  0.00  0.00     0.000 O
ATOM     39  HD  BGC B   3      29.944  16.377  45.9060  0.00  0.00     0.000 HD
ATOM     39   O  BGC B   3      28.579  14.941  47.1410  0.00  0.00     0.000 O
ATOM     41  HD  BGC B   3      28.660  15.007  48.0010  0.00  0.00     0.000 HD
ATOM     41   C  BGC B   3      24.368  15.238  44.5250  0.00  0.00     0.000 C
ATOM     42   O  BGC B   3      23.893  16.207  45.4300  0.00  0.00     0.000 O
ATOM     44  HD  BGC B   3      23.974  16.273  46.2890  0.00  0.00     0.000 HD
BRANCH 31 44
ATOM     44  O4  BGC B   4      28.116  17.722  43.3280  0.00  0.00     0.000 O
BRANCH 44 48
ATOM     45  C1  BGC B   4      28.813  19.633  39.7690  0.00  0.00     0.000 C
ATOM     46  C2  BGC B   4      27.351  19.314  40.0460  0.00  0.00     0.000 C
ATOM     47  C3  BGC B   4      27.176  18.986  41.5080  0.00  0.00     0.000 C
ATOM     48  C4  BGC B   4      28.141  17.872  41.9230  0.00  0.00     0.000 C
ATOM     49  C5  BGC B   4      29.578  18.225  41.5180  0.00  0.00     0.000 C
ATOM     50  O5  BGC B   4      29.629  18.512  40.1130  0.00  0.00     0.000 O
ATOM     51   O  BGC B   4      26.528  20.449  39.7160  0.00  0.00     0.000 O
ATOM     53  HD  BGC B   4      26.542  20.535  40.5780  0.00  0.00     0.000 HD
ATOM     53   O  BGC B   4      25.823  18.562  41.7280  0.00  0.00     0.000 O
ATOM     55  HD  BGC B   4      25.837  18.648  42.5890  0.00  0.00     0.000 HD
ATOM     55   C  BGC B   4      30.592  17.127  41.7840  0.00  0.00     0.000 C
ATOM     56   O  BGC B   4      30.135  15.943  41.1280  0.00  0.00     0.000 O
ATOM     58  HD  BGC B   4      30.150  16.030  41.9900  0.00  0.00     0.000 HD
BRANCH 45 58
ATOM     58  O4  BGC B   5      28.943  19.676  38.3480  0.00  0.00     0.000 O
BRANCH 58 62
ATOM     59  C1  BGC B   5      30.489  22.017  35.3030  0.00  0.00     0.000 C
ATOM     60  C2  BGC B   5      31.502  21.177  36.0550  0.00  0.00     0.000 C
ATOM     61  C3  BGC B   5      30.806  20.078  36.8360  0.00  0.00     0.000 C
ATOM     62  C4  BGC B   5      29.746  20.689  37.7380  0.00  0.00     0.000 C
ATOM     63  C5  BGC B   5      28.802  21.590  36.9290  0.00  0.00     0.000 C
ATOM     64  O5  BGC B   5      29.574  22.575  36.2520  0.00  0.00     0.000 O
ATOM     65   O  BGC B   5      28.540  23.056  38.7400  0.00  0.00     0.000 O
ATOM     67  HD  BGC B   5      28.618  23.088  39.6020  0.00  0.00     0.000 HD
ATOM     67   O  BGC B   5      28.540  23.056  38.7400  0.00  0.00     0.000 O
ATOM     69  HD  BGC B   5      28.618  23.088  39.6020  0.00  0.00     0.000 HD
ENDBRANCH 58 62
ENDBRANCH 45 58
ENDBRANCH 44 48
ENDBRANCH 31 44
ENDBRANCH 30 34
ENDBRANCH 17 30
ENDBRANCH 16 20
ENDBRANCH 1 16
TORSDOF 8
ENDMDL
MODEL 96
REMARK VINA RESULT:      -0.1     66.098     67.779
ROOT
ATOM      1  C1  BGC B   1      37.443   2.132  67.9570  0.00  0.00     0.000 C
ATOM      2  C2  BGC B   1      36.309   1.303  67.3540  0.00  0.00     0.000 C
ATOM      3  C3  BGC B   1      35.098   1.337  68.2660  0.00  0.00     0.000 C
ATOM      4  C4  BGC B   1      35.482   0.949  69.6880  0.00  0.00     0.000 C
ATOM      5  C5  BGC B   1      36.604   1.867  70.1520  0.00  0.00     0.000 C
ATOM      6  O5  BGC B   1      37.722   1.661  69.2680  0.00  0.00     0.000 O
ATOM      7   O  BGC B   1      35.953   1.849  66.0740  0.00  0.00     0.000 O
ATOM      9  HD  BGC B   1      35.140   1.734  65.7990  0.00  0.00     0.000 HD
ATOM      9   O  BGC B   1      34.103   0.450  67.7470  0.00  0.00     0.000 O
ATOM     11  HD  BGC B   1      33.290   0.335  67.4720  0.00  0.00     0.000 HD
ATOM     11   O  BGC B   1      34.364   1.090  70.5370  0.00  0.00     0.000 O
ATOM     13  HD  BGC B   1      33.551   0.975  70.2620  0.00  0.00     0.000 HD
ATOM     13   C  BGC B   1      37.069   1.635  71.5820  0.00  0.00     0.000 C
ATOM     14   O  BGC B   1      37.464   0.286  71.8120  0.00  0.00     0.000 O
ATOM     16  HD  BGC B   1      36.651   0.171  71.5370  0.00  0.00     0.000 HD
ENDROOT
BRANCH 1 16
ATOM     16  O4  BGC B   2      38.609   1.824  67.1950  0.00  0.00     0.000 O
BRANCH 16 20
ATOM     17  C1  BGC B   2      42.044   3.504  65.8100  0.00  0.00     0.000 C
ATOM     18  C2  BGC B   2      42.076   3.185  67.2980  0.00  0.00     0.000 C
ATOM     19  C3  BGC B   2      40.914   2.247  67.6180  0.00  0.00     0.000 C
ATOM     20  C4  BGC B   2      39.606   2.841  67.1350  0.00  0.00     0.000 C
ATOM     21  C5  BGC B   2      39.684   3.321  65.6850  0.00  0.00     0.000 C
ATOM     22  O5  BGC B   2      40.809   4.199  65.5560  0.00  0.00     0.000 O
ATOM     23   O  BGC B   2      43.312   2.535  67.6370  0.00  0.00     0.000 O
ATOM     25  HD  BGC B   2      42.502   2.252  67.5160  0.00  0.00     0.000 HD
ATOM     25   O  BGC B   2      40.858   2.006  69.0190  0.00  0.00     0.000 O
ATOM     27  HD  BGC B   2      40.049   1.722  68.8970  0.00  0.00     0.000 HD
ATOM     27   C  BGC B   2      38.443   4.089  65.2470  0.00  0.00     0.000 C
ATOM     28   O  BGC B   2      38.150   5.204  66.0730  0.00  0.00     0.000 O
ATOM     30  HD  BGC B   2      37.341   4.920  65.9510  0.00  0.00     0.000 HD
BRANCH 17 30
ATOM     30  O4  BGC B   3      43.061   4.459  65.5750  0.00  0.00     0.000 O
BRANCH 30 34
ATOM     31  C1  BGC B   3      45.697   5.584  62.6240  0.00  0.00     0.000 C
ATOM     32  C2  BGC B   3      44.239   5.946  62.3440  0.00  0.00     0.000 C
ATOM     33  C3  BGC B   3      43.452   5.850  63.6380  0.00  0.00     0.000 C
ATOM     34  C4  BGC B   3      43.618   4.462  64.2560  0.00  0.00     0.000 C
ATOM     35  C5  BGC B   3      45.090   4.109  64.3740  0.00  0.00     0.000 C
ATOM     36  O5  BGC B   3      45.716   4.245  63.0940  0.00  0.00     0.000 O
ATOM     37   O  BGC B   3      44.165   7.288  61.8680  0.00  0.00     0.000 O
ATOM     39  HD  BGC B   3      43.331   7.158  61.6790  0.00  0.00     0.000 HD
ATOM     39   O  BGC B   3      42.086   6.112  63.3540  0.00  0.00     0.000 O
ATOM     41  HD  BGC B   3      41.251   5.981  63.1640  0.00  0.00     0.000 HD
ATOM     41   C  BGC B   3      45.349   2.700  64.8970  0.00  0.00     0.000 C
ATOM     42   O  BGC B   3      44.726   1.751  64.0650  0.00  0.00     0.000 O
ATOM     44  HD  BGC B   3      43.891   1.620  63.8750  0.00  0.00     0.000 HD
BRANCH 31 44
ATOM     44  O4  BGC B   4      46.370   5.584  61.3900  0.00  0.00     0.000 O
BRANCH 44 48
ATOM     45  C1  BGC B   4      50.067   6.344  59.7900  0.00  0.00     0.000 C
ATOM     46  C2  BGC B   4      49.960   5.031  60.5540  0.00  0.00     0.000 C
ATOM     47  C3  BGC B   4      48.505   4.678  60.7460  0.00  0.00     0.000 C
ATOM     48  C4  BGC B   4      47.759   5.841  61.4080  0.00  0.00     0.000 C
ATOM     49  C5  BGC B   4      48.000   7.145  60.6370  0.00  0.00     0.000 C
ATOM     50  O5  BGC B   4      49.410   7.384  60.5180  0.00  0.00     0.000 O
ATOM     51   O  BGC B   4      50.605   3.977  59.8150  0.00  0.00     0.000 O
ATOM     53  HD  BGC B   4      49.781   3.791  59.6270  0.00  0.00     0.000 HD
ATOM     53   O  BGC B   4      48.419   3.512  61.5770  0.00  0.00     0.000 O
ATOM     55  HD  BGC B   4      47.594   3.326  61.3900  0.00  0.00     0.000 HD
ATOM     55   C  BGC B   4      47.395   8.378  61.2840  0.00  0.00     0.000 C
ATOM     56   O  BGC B   4      47.891   8.456  62.6220  0.00  0.00     0.000 O
ATOM     58  HD  BGC B   4      47.066   8.270  62.4340  0.00  0.00     0.000 HD
BRANCH 45 58
ATOM     58  O4  BGC B   5      51.437   6.735  59.8750  0.00  0.00     0.000 O
BRANCH 58 62
ATOM     59  C1  BGC B   5      54.584   8.039  57.5210  0.00  0.00     0.000 C
ATOM     60  C2  BGC B   5      53.555   9.094  57.8720  0.00  0.00     0.000 C
ATOM     61  C3  BGC B   5      52.704   8.639  59.0430  0.00  0.00     0.000 C
ATOM     62  C4  BGC B   5      52.090   7.284  58.7280  0.00  0.00     0.000 C
ATOM     63  C5  BGC B   5      53.176   6.284  58.3030  0.00  0.00     0.000 C
ATOM     64  O5  BGC B   5      53.895   6.826  57.2010  0.00  0.00     0.000 O
ATOM     65   O  BGC B   5      51.711   5.222  56.8120  0.00  0.00     0.000 O
ATOM     67  HD  BGC B   5      50.866   5.115  56.6550  0.00  0.00     0.000 HD
ATOM     67   O  BGC B   5      51.711   5.222  56.8120  0.00  0.00     0.000 O
ATOM     69  HD  BGC B   5      50.866   5.115  56.6550  0.00  0.00     0.000 HD
ENDBRANCH 58 62
ENDBRANCH 45 58
ENDBRANCH 44 48
ENDBRANCH 31 44
ENDBRANCH 30 34
ENDBRANCH 17 30
ENDBRANCH 16 20
ENDBRANCH 1 16
TORSDOF 8
ENDMDL
MODEL 97
REMARK VINA RESULT:      -0.1     67.179     69.810
ROOT
ATOM      1  C1  BGC B   1      12.502  49.303  58.0320  0.00  0.00     0.000 C
ATOM      2  C2  BGC B   1      11.581  49.350  59.2500  0.00  0.00     0.000 C
ATOM      3  C3  BGC B   1      12.141  48.481  60.3600  0.00  0.00     0.000 C
ATOM      4  C4  BGC B   1      12.443  47.079  59.8470  0.00  0.00     0.000 C
ATOM      5  C5  BGC B   1      13.378  47.195  58.6510  0.00  0.00     0.000 C
ATOM      6  O5  BGC B   1      12.688  47.951  57.6380  0.00  0.00     0.000 O
ATOM      7   O  BGC B   1      11.482  50.706  59.7160  0.00  0.00     0.000 O
ATOM      9  HD  BGC B   1      11.317  50.832  60.5560  0.00  0.00     0.000 HD
ATOM      9   O  BGC B   1      11.196  48.438  61.4340  0.00  0.00     0.000 O
ATOM     11  HD  BGC B   1      11.031  48.564  62.2750  0.00  0.00     0.000 HD
ATOM     11   O  BGC B   1      13.059  46.324  60.8670  0.00  0.00     0.000 O
ATOM     13  HD  BGC B   1      12.894  46.449  61.7070  0.00  0.00     0.000 HD
ATOM     13   C  BGC B   1      13.815  45.867  58.0510  0.00  0.00     0.000 C
ATOM     14   O  BGC B   1      12.709  45.048  57.6830  0.00  0.00     0.000 O
ATOM     16  HD  BGC B   1      12.543  45.174  58.5240  0.00  0.00     0.000 HD
ENDROOT
BRANCH 1 16
ATOM     16  O4  BGC B   2      11.778  49.906  56.9620  0.00  0.00     0.000 O
BRANCH 16 20
ATOM     17  C1  BGC B   2      12.317  52.183  53.6360  0.00  0.00     0.000 C
ATOM     18  C2  BGC B   2      12.742  50.733  53.4600  0.00  0.00     0.000 C
ATOM     19  C3  BGC B   2      12.165  49.915  54.6130  0.00  0.00     0.000 C
ATOM     20  C4  BGC B   2      12.560  50.523  55.9430  0.00  0.00     0.000 C
ATOM     21  C5  BGC B   2      12.286  52.026  56.0010  0.00  0.00     0.000 C
ATOM     22  O5  BGC B   2      12.904  52.646  54.8670  0.00  0.00     0.000 O
ATOM     23   O  BGC B   2      12.235  50.217  52.2170  0.00  0.00     0.000 O
ATOM     25  HD  BGC B   2      11.994  50.126  53.0440  0.00  0.00     0.000 HD
ATOM     25   O  BGC B   2      12.624  48.570  54.5300  0.00  0.00     0.000 O
ATOM     27  HD  BGC B   2      12.382  48.479  55.3560  0.00  0.00     0.000 HD
ATOM     27   C  BGC B   2      12.850  52.684  57.2540  0.00  0.00     0.000 C
ATOM     28   O  BGC B   2      14.243  52.476  57.4210  0.00  0.00     0.000 O
ATOM     30  HD  BGC B   2      14.001  52.385  58.2480  0.00  0.00     0.000 HD
BRANCH 17 30
ATOM     30  O4  BGC B   3      12.961  52.925  52.6170  0.00  0.00     0.000 O
BRANCH 30 34
ATOM     31  C1  BGC B   3      12.354  56.264  50.2920  0.00  0.00     0.000 C
ATOM     32  C2  BGC B   3      12.646  56.559  51.7620  0.00  0.00     0.000 C
ATOM     33  C3  BGC B   3      13.234  55.316  52.4060  0.00  0.00     0.000 C
ATOM     34  C4  BGC B   3      12.298  54.125  52.2080  0.00  0.00     0.000 C
ATOM     35  C5  BGC B   3      11.934  53.977  50.7410  0.00  0.00     0.000 C
ATOM     36  O5  BGC B   3      11.401  55.213  50.2550  0.00  0.00     0.000 O
ATOM     37   O  BGC B   3      13.604  57.612  51.8540  0.00  0.00     0.000 O
ATOM     39  HD  BGC B   3      13.461  57.645  52.7080  0.00  0.00     0.000 HD
ATOM     39   O  BGC B   3      13.431  55.575  53.7880  0.00  0.00     0.000 O
ATOM     41  HD  BGC B   3      13.288  55.608  54.6410  0.00  0.00     0.000 HD
ATOM     41   C  BGC B   3      10.928  52.866  50.4610  0.00  0.00     0.000 C
ATOM     42   O  BGC B   3       9.746  53.086  51.1950  0.00  0.00     0.000 O
ATOM     44  HD  BGC B   3       9.603  53.119  52.0480  0.00  0.00     0.000 HD
BRANCH 31 44
ATOM     44  O4  BGC B   4      11.719  57.397  49.7580  0.00  0.00     0.000 O
BRANCH 44 48
ATOM     45  C1  BGC B   4      11.350  59.469  46.2400  0.00  0.00     0.000 C
ATOM     46  C2  BGC B   4      10.572  58.162  46.2950  0.00  0.00     0.000 C
ATOM     47  C3  BGC B   4      10.462  57.702  47.7290  0.00  0.00     0.000 C
ATOM     48  C4  BGC B   4      11.851  57.622  48.3690  0.00  0.00     0.000 C
ATOM     49  C5  BGC B   4      12.608  58.943  48.1820  0.00  0.00     0.000 C
ATOM     50  O5  BGC B   4      12.656  59.279  46.7870  0.00  0.00     0.000 O
ATOM     51   O  BGC B   4       9.248  58.353  45.7600  0.00  0.00     0.000 O
ATOM     53  HD  BGC B   4       9.057  58.358  46.6050  0.00  0.00     0.000 HD
ATOM     53   O  BGC B   4       9.842  56.408  47.7530  0.00  0.00     0.000 O
ATOM     55  HD  BGC B   4       9.650  56.414  48.5970  0.00  0.00     0.000 HD
ATOM     55   C  BGC B   4      14.041  58.921  48.6830  0.00  0.00     0.000 C
ATOM     56   O  BGC B   4      14.710  57.833  48.0430  0.00  0.00     0.000 O
ATOM     58  HD  BGC B   4      14.518  57.838  48.8870  0.00  0.00     0.000 HD
BRANCH 45 58
ATOM     58  O4  BGC B   5      11.632  59.698  44.8600  0.00  0.00     0.000 O
BRANCH 58 62
ATOM     59  C1  BGC B   5      11.462  62.646  41.9570  0.00  0.00     0.000 C
ATOM     60  C2  BGC B   5      12.605  62.771  42.9440  0.00  0.00     0.000 C
ATOM     61  C3  BGC B   5      12.822  61.460  43.6770  0.00  0.00     0.000 C
ATOM     62  C4  BGC B   5      11.518  61.017  44.3210  0.00  0.00     0.000 C
ATOM     63  C5  BGC B   5      10.385  60.988  43.2860  0.00  0.00     0.000 C
ATOM     64  O5  BGC B   5      10.284  62.272  42.6780  0.00  0.00     0.000 O
ATOM     65   O  BGC B   5       8.807  61.637  44.8930  0.00  0.00     0.000 O
ATOM     67  HD  BGC B   5       8.679  61.649  45.7500  0.00  0.00     0.000 HD
ATOM     67   O  BGC B   5       8.807  61.637  44.8930  0.00  0.00     0.000 O
ATOM     69  HD  BGC B   5       8.679  61.649  45.7500  0.00  0.00     0.000 HD
ENDBRANCH 58 62
ENDBRANCH 45 58
ENDBRANCH 44 48
ENDBRANCH 31 44
ENDBRANCH 30 34
ENDBRANCH 17 30
ENDBRANCH 16 20
ENDBRANCH 1 16
TORSDOF 8
ENDMDL
MODEL 98
REMARK VINA RESULT:      -0.1     60.412     64.066
ROOT
ATOM      1  C1  BGC B   1      23.355  33.512  63.8710  0.00  0.00     0.000 C
ATOM      2  C2  BGC B   1      22.536  34.641  64.4940  0.00  0.00     0.000 C
ATOM      3  C3  BGC B   1      21.881  34.163  65.7760  0.00  0.00     0.000 C
ATOM      4  C4  BGC B   1      21.106  32.873  65.5370  0.00  0.00     0.000 C
ATOM      5  C5  BGC B   1      22.053  31.847  64.9320  0.00  0.00     0.000 C
ATOM      6  O5  BGC B   1      22.520  32.379  63.6780  0.00  0.00     0.000 O
ATOM      7   O  BGC B   1      23.405  35.747  64.7910  0.00  0.00     0.000 O
ATOM      9  HD  BGC B   1      23.180  36.271  65.4430  0.00  0.00     0.000 HD
ATOM      9   O  BGC B   1      21.018  35.193  66.2660  0.00  0.00     0.000 O
ATOM     11  HD  BGC B   1      20.793  35.717  66.9180  0.00  0.00     0.000 HD
ATOM     11   O  BGC B   1      20.596  32.393  66.7610  0.00  0.00     0.000 O
ATOM     13  HD  BGC B   1      20.371  32.917  67.4130  0.00  0.00     0.000 HD
ATOM     13   C  BGC B   1      21.436  30.479  64.6770  0.00  0.00     0.000 C
ATOM     14   O  BGC B   1      20.269  30.554  63.8640  0.00  0.00     0.000 O
ATOM     16  HD  BGC B   1      20.045  31.079  64.5150  0.00  0.00     0.000 HD
ENDROOT
BRANCH 1 16
ATOM     16  O4  BGC B   2      23.699  33.948  62.5570  0.00  0.00     0.000 O
BRANCH 16 20
ATOM     17  C1  BGC B   2      26.665  33.687  59.7880  0.00  0.00     0.000 C
ATOM     18  C2  BGC B   2      25.830  32.421  59.9110  0.00  0.00     0.000 C
ATOM     19  C3  BGC B   2      24.557  32.753  60.6850  0.00  0.00     0.000 C
ATOM     20  C4  BGC B   2      24.897  33.406  62.0090  0.00  0.00     0.000 C
ATOM     21  C5  BGC B   2      25.891  34.557  61.8520  0.00  0.00     0.000 C
ATOM     22  O5  BGC B   2      27.030  34.081  61.1240  0.00  0.00     0.000 O
ATOM     23   O  BGC B   2      25.474  31.936  58.6060  0.00  0.00     0.000 O
ATOM     25  HD  BGC B   2      25.044  32.371  59.2180  0.00  0.00     0.000 HD
ATOM     25   O  BGC B   2      23.798  31.569  60.9010  0.00  0.00     0.000 O
ATOM     27  HD  BGC B   2      23.368  32.004  61.5130  0.00  0.00     0.000 HD
ATOM     27   C  BGC B   2      26.388  35.099  63.1870  0.00  0.00     0.000 C
ATOM     28   O  BGC B   2      26.978  34.108  64.0120  0.00  0.00     0.000 O
ATOM     30  HD  BGC B   2      26.547  34.543  64.6250  0.00  0.00     0.000 HD
BRANCH 17 30
ATOM     30  O4  BGC B   3      27.882  33.316  59.1670  0.00  0.00     0.000 O
BRANCH 30 34
ATOM     31  C1  BGC B   3      30.741  34.884  56.6590  0.00  0.00     0.000 C
ATOM     32  C2  BGC B   3      30.749  35.466  58.0720  0.00  0.00     0.000 C
ATOM     33  C3  BGC B   3      29.950  34.552  58.9840  0.00  0.00     0.000 C
ATOM     34  C4  BGC B   3      28.542  34.348  58.4260  0.00  0.00     0.000 C
ATOM     35  C5  BGC B   3      28.607  33.907  56.9750  0.00  0.00     0.000 C
ATOM     36  O5  BGC B   3      29.390  34.843  56.2270  0.00  0.00     0.000 O
ATOM     37   O  BGC B   3      32.089  35.526  58.5540  0.00  0.00     0.000 O
ATOM     39  HD  BGC B   3      31.807  35.985  59.2320  0.00  0.00     0.000 HD
ATOM     39   O  BGC B   3      29.897  35.139  60.2750  0.00  0.00     0.000 O
ATOM     41  HD  BGC B   3      29.615  35.598  60.9530  0.00  0.00     0.000 HD
ATOM     41   C  BGC B   3      27.243  33.767  56.3080  0.00  0.00     0.000 C
ATOM     42   O  BGC B   3      26.543  34.987  56.3740  0.00  0.00     0.000 O
ATOM     44  HD  BGC B   3      26.261  35.446  57.0520  0.00  0.00     0.000 HD
BRANCH 31 44
ATOM     44  O4  BGC B   4      31.399  35.805  55.8270  0.00  0.00     0.000 O
BRANCH 44 48
ATOM     45  C1  BGC B   4      33.735  35.942  52.4610  0.00  0.00     0.000 C
ATOM     46  C2  BGC B   4      32.267  35.629  52.2060  0.00  0.00     0.000 C
ATOM     47  C3  BGC B   4      31.457  35.989  53.4270  0.00  0.00     0.000 C
ATOM     48  C4  BGC B   4      32.030  35.298  54.6680  0.00  0.00     0.000 C
ATOM     49  C5  BGC B   4      33.532  35.579  54.7960  0.00  0.00     0.000 C
ATOM     50  O5  BGC B   4      34.202  35.196  53.5860  0.00  0.00     0.000 O
ATOM     51   O  BGC B   4      31.788  36.392  51.0820  0.00  0.00     0.000 O
ATOM     53  HD  BGC B   4      31.447  36.864  51.7240  0.00  0.00     0.000 HD
ATOM     53   O  BGC B   4      30.100  35.569  53.2220  0.00  0.00     0.000 O
ATOM     55  HD  BGC B   4      29.759  36.041  53.8630  0.00  0.00     0.000 HD
ATOM     55   C  BGC B   4      34.214  34.840  55.9340  0.00  0.00     0.000 C
ATOM     56   O  BGC B   4      33.950  33.446  55.7680  0.00  0.00     0.000 O
ATOM     58  HD  BGC B   4      33.609  33.918  56.4090  0.00  0.00     0.000 HD
BRANCH 45 58
ATOM     58  O4  BGC B   5      34.454  35.344  51.3830  0.00  0.00     0.000 O
BRANCH 58 62
ATOM     59  C1  BGC B   5      37.375  36.194  48.5740  0.00  0.00     0.000 C
ATOM     60  C2  BGC B   5      37.883  35.896  49.9700  0.00  0.00     0.000 C
ATOM     61  C3  BGC B   5      36.811  35.206  50.7910  0.00  0.00     0.000 C
ATOM     62  C4  BGC B   5      35.544  36.046  50.7800  0.00  0.00     0.000 C
ATOM     63  C5  BGC B   5      35.128  36.380  49.3400  0.00  0.00     0.000 C
ATOM     64  O5  BGC B   5      36.215  37.024  48.6850  0.00  0.00     0.000 O
ATOM     65   O  BGC B   5      34.295  38.472  49.9930  0.00  0.00     0.000 O
ATOM     67  HD  BGC B   5      34.010  38.899  50.6900  0.00  0.00     0.000 HD
ATOM     67   O  BGC B   5      34.295  38.472  49.9930  0.00  0.00     0.000 O
ATOM     69  HD  BGC B   5      34.010  38.899  50.6900  0.00  0.00     0.000 HD
ENDBRANCH 58 62
ENDBRANCH 45 58
ENDBRANCH 44 48
ENDBRANCH 31 44
ENDBRANCH 30 34
ENDBRANCH 17 30
ENDBRANCH 16 20
ENDBRANCH 1 16
TORSDOF 8
ENDMDL
MODEL 99
REMARK VINA RESULT:      -0.1     61.612     70.876
ROOT
ATOM      1  C1  BGC B   1      67.932  18.722  54.1820  0.00  0.00     0.000 C
ATOM      2  C2  BGC B   1      68.981  19.281  53.2220  0.00  0.00     0.000 C
ATOM      3  C3  BGC B   1      70.188  19.770  53.9980  0.00  0.00     0.000 C
ATOM      4  C4  BGC B   1      69.766  20.727  55.1060  0.00  0.00     0.000 C
ATOM      5  C5  BGC B   1      68.738  20.026  55.9820  0.00  0.00     0.000 C
ATOM      6  O5  BGC B   1      67.607  19.710  55.1490  0.00  0.00     0.000 O
ATOM      7   O  BGC B   1      69.390  18.246  52.3130  0.00  0.00     0.000 O
ATOM      9  HD  BGC B   1      70.188  18.294  51.9820  0.00  0.00     0.000 HD
ATOM      9   O  BGC B   1      71.093  20.408  53.0920  0.00  0.00     0.000 O
ATOM     11  HD  BGC B   1      71.892  20.455  52.7600  0.00  0.00     0.000 HD
ATOM     11   O  BGC B   1      70.892  21.084  55.8780  0.00  0.00     0.000 O
ATOM     13  HD  BGC B   1      71.691  21.132  55.5470  0.00  0.00     0.000 HD
ATOM     13   C  BGC B   1      68.251  20.841  57.1720  0.00  0.00     0.000 C
ATOM     14   O  BGC B   1      67.727  22.107  56.7830  0.00  0.00     0.000 O
ATOM     16  HD  BGC B   1      68.526  22.155  56.4520  0.00  0.00     0.000 HD
ENDROOT
BRANCH 1 16
ATOM     16  O4  BGC B   2      66.742  18.548  53.4150  0.00  0.00     0.000 O
BRANCH 16 20
ATOM     17  C1  BGC B   2      63.482  16.138  53.0950  0.00  0.00     0.000 C
ATOM     18  C2  BGC B   2      63.420  17.097  54.2750  0.00  0.00     0.000 C
ATOM     19  C3  BGC B   2      64.488  18.172  54.0830  0.00  0.00     0.000 C
ATOM     20  C4  BGC B   2      65.846  17.536  53.8660  0.00  0.00     0.000 C
ATOM     21  C5  BGC B   2      65.814  16.442  52.7980  0.00  0.00     0.000 C
ATOM     22  O5  BGC B   2      64.777  15.510  53.1310  0.00  0.00     0.000 O
ATOM     23   O  BGC B   2      62.128  17.724  54.3350  0.00  0.00     0.000 O
ATOM     25  HD  BGC B   2      62.907  17.987  54.0630  0.00  0.00     0.000 HD
ATOM     25   O  BGC B   2      64.521  19.030  55.2170  0.00  0.00     0.000 O
ATOM     27  HD  BGC B   2      65.300  19.293  54.9450  0.00  0.00     0.000 HD
ATOM     27   C  BGC B   2      67.122  15.666  52.7030  0.00  0.00     0.000 C
ATOM     28   O  BGC B   2      67.519  15.080  53.9320  0.00  0.00     0.000 O
ATOM     30  HD  BGC B   2      68.297  15.344  53.6600  0.00  0.00     0.000 HD
BRANCH 17 30
ATOM     30  O4  BGC B   3      62.560  15.099  53.3630  0.00  0.00     0.000 O
BRANCH 30 34
ATOM     31  C1  BGC B   3      60.050  12.525  51.3640  0.00  0.00     0.000 C
ATOM     32  C2  BGC B   3      61.537  12.205  51.2150  0.00  0.00     0.000 C
ATOM     33  C3  BGC B   3      62.309  12.950  52.2890  0.00  0.00     0.000 C
ATOM     34  C4  BGC B   3      62.007  14.446  52.2160  0.00  0.00     0.000 C
ATOM     35  C5  BGC B   3      60.507  14.683  52.2250  0.00  0.00     0.000 C
ATOM     36  O5  BGC B   3      59.898  13.923  51.1760  0.00  0.00     0.000 O
ATOM     37   O  BGC B   3      61.743  10.806  51.3980  0.00  0.00     0.000 O
ATOM     39  HD  BGC B   3      62.561  10.909  51.1330  0.00  0.00     0.000 HD
ATOM     39   O  BGC B   3      63.695  12.709  52.0950  0.00  0.00     0.000 O
ATOM     41  HD  BGC B   3      64.513  12.812  51.8300  0.00  0.00     0.000 HD
ATOM     41   C  BGC B   3      60.110  16.146  52.0630  0.00  0.00     0.000 C
ATOM     42   O  BGC B   3      60.637  16.662  50.8640  0.00  0.00     0.000 O
ATOM     44  HD  BGC B   3      61.455  16.765  50.5990  0.00  0.00     0.000 HD
BRANCH 31 44
ATOM     44  O4  BGC B   4      59.382  11.903  50.2960  0.00  0.00     0.000 O
BRANCH 44 48
ATOM     45  C1  BGC B   4      55.781  10.171  49.3800  0.00  0.00     0.000 C
ATOM     46  C2  BGC B   4      55.754  11.690  49.4680  0.00  0.00     0.000 C
ATOM     47  C3  BGC B   4      57.165  12.223  49.4140  0.00  0.00     0.000 C
ATOM     48  C4  BGC B   4      58.026  11.556  50.4920  0.00  0.00     0.000 C
ATOM     49  C5  BGC B   4      57.919  10.029  50.3990  0.00  0.00     0.000 C
ATOM     50  O5  BGC B   4      56.540   9.635  50.4650  0.00  0.00     0.000 O
ATOM     51   O  BGC B   4      55.004  12.235  48.3660  0.00  0.00     0.000 O
ATOM     53  HD  BGC B   4      55.805  12.391  48.0760  0.00  0.00     0.000 HD
ATOM     53   O  BGC B   4      57.132  13.641  49.6290  0.00  0.00     0.000 O
ATOM     55  HD  BGC B   4      57.933  13.797  49.3400  0.00  0.00     0.000 HD
ATOM     55   C  BGC B   4      58.647   9.281  51.5010  0.00  0.00     0.000 C
ATOM     56   O  BGC B   4      58.163   9.769  52.7530  0.00  0.00     0.000 O
ATOM     58  HD  BGC B   4      58.964   9.925  52.4640  0.00  0.00     0.000 HD
BRANCH 45 58
ATOM     58  O4  BGC B   5      54.458   9.737  49.6940  0.00  0.00     0.000 O
BRANCH 58 62
ATOM     59  C1  BGC B   5      51.464   7.216  48.3420  0.00  0.00     0.000 C
ATOM     60  C2  BGC B   5      52.610   6.536  49.0630  0.00  0.00     0.000 C
ATOM     61  C3  BGC B   5      53.412   7.547  49.8620  0.00  0.00     0.000 C
ATOM     62  C4  BGC B   5      53.864   8.673  48.9470  0.00  0.00     0.000 C
ATOM     63  C5  BGC B   5      52.668   9.266  48.1870  0.00  0.00     0.000 C
ATOM     64  O5  BGC B   5      52.008   8.221  47.4800  0.00  0.00     0.000 O
ATOM     65   O  BGC B   5      53.992   9.692  46.2990  0.00  0.00     0.000 O
ATOM     67  HD  BGC B   5      54.817   9.802  46.0620  0.00  0.00     0.000 HD
ATOM     67   O  BGC B   5      53.992   9.692  46.2990  0.00  0.00     0.000 O
ATOM     69  HD  BGC B   5      54.817   9.802  46.0620  0.00  0.00     0.000 HD
ENDBRANCH 58 62
ENDBRANCH 45 58
ENDBRANCH 44 48
ENDBRANCH 31 44
ENDBRANCH 30 34
ENDBRANCH 17 30
ENDBRANCH 16 20
ENDBRANCH 1 16
TORSDOF 8
ENDMDL
MODEL 100
REMARK VINA RESULT:      -0.1     52.638     54.484
ROOT
ATOM      1  C1  BGC B   1      25.631  10.531  56.9330  0.00  0.00     0.000 C
ATOM      2  C2  BGC B   1      24.119  10.625  56.7320  0.00  0.00     0.000 C
ATOM      3  C3  BGC B   1      23.406   9.701  57.7000  0.00  0.00     0.000 C
ATOM      4  C4  BGC B   1      23.972   8.289  57.6130  0.00  0.00     0.000 C
ATOM      5  C5  BGC B   1      25.474   8.357  57.8490  0.00  0.00     0.000 C
ATOM      6  O5  BGC B   1      26.037   9.176  56.8070  0.00  0.00     0.000 O
ATOM      7   O  BGC B   1      23.693  11.977  56.9690  0.00  0.00     0.000 O
ATOM      9  HD  BGC B   1      22.882  12.101  57.2450  0.00  0.00     0.000 HD
ATOM      9   O  BGC B   1      22.007   9.708  57.4000  0.00  0.00     0.000 O
ATOM     11  HD  BGC B   1      21.196   9.832  57.6760  0.00  0.00     0.000 HD
ATOM     11   O  BGC B   1      23.368   7.475  58.5940  0.00  0.00     0.000 O
ATOM     13  HD  BGC B   1      22.556   7.599  58.8700  0.00  0.00     0.000 HD
ATOM     13   C  BGC B   1      26.183   7.010  57.8410  0.00  0.00     0.000 C
ATOM     14   O  BGC B   1      25.946   6.279  56.6420  0.00  0.00     0.000 O
ATOM     16  HD  BGC B   1      25.135   6.403  56.9180  0.00  0.00     0.000 HD
ENDROOT
BRANCH 1 16
ATOM     16  O4  BGC B   2      26.223  11.202  55.8230  0.00  0.00     0.000 O
BRANCH 16 20
ATOM     17  C1  BGC B   2      29.436  13.487  54.8270  0.00  0.00     0.000 C
ATOM     18  C2  BGC B   2      29.766  12.012  55.0040  0.00  0.00     0.000 C
ATOM     19  C3  BGC B   2      28.460  11.220  55.0090  0.00  0.00     0.000 C
ATOM     20  C4  BGC B   2      27.508  11.776  56.0480  0.00  0.00     0.000 C
ATOM     21  C5  BGC B   2      27.356  13.294  55.9480  0.00  0.00     0.000 C
ATOM     22  O5  BGC B   2      28.661  13.885  55.9730  0.00  0.00     0.000 O
ATOM     23   O  BGC B   2      30.589  11.556  53.9180  0.00  0.00     0.000 O
ATOM     25  HD  BGC B   2      29.748  11.469  54.1070  0.00  0.00     0.000 HD
ATOM     25   O  BGC B   2      28.727   9.847  55.2690  0.00  0.00     0.000 O
ATOM     27  HD  BGC B   2      27.887   9.761  55.4580  0.00  0.00     0.000 HD
ATOM     27   C  BGC B   2      26.555  13.888  57.0990  0.00  0.00     0.000 C
ATOM     28   O  BGC B   2      27.087  13.575  58.3750  0.00  0.00     0.000 O
ATOM     30  HD  BGC B   2      26.246  13.489  58.5640  0.00  0.00     0.000 HD
BRANCH 17 30
ATOM     30  O4  BGC B   3      30.656  14.196  54.9410  0.00  0.00     0.000 O
BRANCH 30 34
ATOM     31  C1  BGC B   3      32.469  17.594  53.4960  0.00  0.00     0.000 C
ATOM     32  C2  BGC B   3      31.330  17.853  54.4820  0.00  0.00     0.000 C
ATOM     33  C3  BGC B   3      31.024  16.566  55.2280  0.00  0.00     0.000 C
ATOM     34  C4  BGC B   3      30.719  15.441  54.2390  0.00  0.00     0.000 C
ATOM     35  C5  BGC B   3      31.824  15.334  53.2030  0.00  0.00     0.000 C
ATOM     36  O5  BGC B   3      32.018  16.609  52.5800  0.00  0.00     0.000 O
ATOM     37   O  BGC B   3      31.735  18.839  55.4290  0.00  0.00     0.000 O
ATOM     39  HD  BGC B   3      30.920  18.871  55.7190  0.00  0.00     0.000 HD
ATOM     39   O  BGC B   3      29.915  16.795  56.0840  0.00  0.00     0.000 O
ATOM     41  HD  BGC B   3      29.100  16.827  56.3740  0.00  0.00     0.000 HD
ATOM     41   C  BGC B   3      31.559  14.296  52.1190  0.00  0.00     0.000 C
ATOM     42   O  BGC B   3      30.350  14.583  51.4560  0.00  0.00     0.000 O
ATOM     44  HD  BGC B   3      29.535  14.616  51.7460  0.00  0.00     0.000 HD
BRANCH 31 44
ATOM     44  O4  BGC B   4      32.654  18.773  52.7560  0.00  0.00     0.000 O
BRANCH 44 48
ATOM     45  C1  BGC B   4      35.602  20.914  50.8780  0.00  0.00     0.000 C
ATOM     46  C2  BGC B   4      35.158  19.658  50.1410  0.00  0.00     0.000 C
ATOM     47  C3  BGC B   4      33.840  19.186  50.7020  0.00  0.00     0.000 C
ATOM     48  C4  BGC B   4      33.940  19.009  52.2200  0.00  0.00     0.000 C
ATOM     49  C5  BGC B   4      34.490  20.282  52.8760  0.00  0.00     0.000 C
ATOM     50  O5  BGC B   4      35.743  20.636  52.2720  0.00  0.00     0.000 O
ATOM     51   O  BGC B   4      34.999  19.940  48.7380  0.00  0.00     0.000 O
ATOM     53  HD  BGC B   4      34.166  19.944  48.9740  0.00  0.00     0.000 HD
ATOM     53   O  BGC B   4      33.500  17.933  50.0900  0.00  0.00     0.000 O
ATOM     55  HD  BGC B   4      32.667  17.938  50.3270  0.00  0.00     0.000 HD
ATOM     55   C  BGC B   4      34.735  20.164  54.3690  0.00  0.00     0.000 C
ATOM     56   O  BGC B   4      35.598  19.045  54.5810  0.00  0.00     0.000 O
ATOM     58  HD  BGC B   4      34.765  19.050  54.8180  0.00  0.00     0.000 HD
BRANCH 45 58
ATOM     58  O4  BGC B   5      36.953  21.145  50.4780  0.00  0.00     0.000 O
BRANCH 58 62
ATOM     59  C1  BGC B   5      39.457  24.140  49.0960  0.00  0.00     0.000 C
ATOM     60  C2  BGC B   5      39.166  24.170  50.5830  0.00  0.00     0.000 C
ATOM     61  C3  BGC B   5      38.608  22.837  51.0440  0.00  0.00     0.000 C
ATOM     62  C4  BGC B   5      37.394  22.477  50.2030  0.00  0.00     0.000 C
ATOM     63  C5  BGC B   5      37.733  22.542  48.7070  0.00  0.00     0.000 C
ATOM     64  O5  BGC B   5      38.240  23.838  48.4060  0.00  0.00     0.000 O
ATOM     65   O  BGC B   5      35.570  23.277  48.1780  0.00  0.00     0.000 O
ATOM     67  HD  BGC B   5      34.763  23.285  48.4920  0.00  0.00     0.000 HD
ATOM     67   O  BGC B   5      35.570  23.277  48.1780  0.00  0.00     0.000 O
ATOM     69  HD  BGC B   5      34.763  23.285  48.4920  0.00  0.00     0.000 HD
ENDBRANCH 58 62
ENDBRANCH 45 58
ENDBRANCH 44 48
ENDBRANCH 31 44
ENDBRANCH 30 34
ENDBRANCH 17 30
ENDBRANCH 16 20
ENDBRANCH 1 16
TORSDOF 8
ENDMDL
