MODEL 1
REMARK VINA RESULT:      -5.6      0.000      0.000
ROOT
ATOM      1  C1  A00 X   1     160.553  42.858  62.2310  0.00  0.00     0.000 C
ATOM      2  C2  A00 X   1     161.628  41.877  61.6920  0.00  0.00     0.000 C
ATOM      3  C3  A00 X   1     161.129  40.809  60.6630  0.00  0.00     0.000 C
ATOM      4  C4  A00 X   1     159.591  40.621  60.5870  0.00  0.00     0.000 C
ATOM      5  C5  A00 X   1     158.890  41.085  61.8640  0.00  0.00     0.000 C
ATOM      6  O5  A00 X   1     159.178  42.499  61.9480  0.00  0.00     0.000 O
ATOM      7   O  A00 X   1     161.675  39.541  61.0190  0.00  0.00     0.000 O
ATOM      9  HD  A00 X   1     160.851  39.408  60.7860  0.00  0.00     0.000 HD
ATOM      9   O  A00 X   1     159.038  41.298  59.4590  0.00  0.00     0.000 O
ATOM     11  HD  A00 X   1     158.214  41.166  59.2270  0.00  0.00     0.000 HD
ENDROOT
BRANCH 2 11
ATOM     11   O  A00 X   1     162.673  42.661  61.0850  0.00  0.00     0.000 O
ATOM     12   O  A00 X   1     164.373  41.666  59.7110  0.00  0.00     0.000 OA
ATOM     13   O  A00 X   1     164.241  41.066  62.0650  0.00  0.00     0.000 OA
ATOM     14   O  A00 X   1     164.906  43.255  61.4150  0.00  0.00     0.000 OA
ATOM     15   S  A00 X   1     164.133  42.094  61.0660  0.00  0.00     0.000 S
ENDBRANCH 2 11
BRANCH 5 16
ATOM     16   C  A00 X   1     159.264  40.306  63.1290  0.00  0.00     0.000 C
ATOM     17   O  A00 X   1     159.863  39.257  63.0090  0.00  0.00     0.000 OA
ATOM     18   O  A00 X   1     158.991  40.703  64.2440  0.00  0.00     0.000 OA
ENDBRANCH 5 16
BRANCH 1 19
ATOM     19  O4  A00 X   2     160.738  43.178  63.6320  0.00  0.00     0.000 O
BRANCH 19 23
ATOM     20  C1  A00 X   2     159.938  47.353  63.0870  0.00  0.00     0.000 C
ATOM     21  C2  A00 X   2     161.420  46.917  63.1930  0.00  0.00     0.000 C
ATOM     22  C3  A00 X   2     161.565  45.400  62.9500  0.00  0.00     0.000 C
ATOM     23  C4  A00 X   2     160.637  44.607  63.8970  0.00  0.00     0.000 C
ATOM     24  C5  A00 X   2     159.193  45.148  63.7090  0.00  0.00     0.000 C
ATOM     25  O5  A00 X   2     159.177  46.561  64.0370  0.00  0.00     0.000 O
ATOM     26   O  A00 X   2     162.961  45.058  62.9910  0.00  0.00     0.000 O
ATOM     28  HD  A00 X   2     163.090  45.467  63.7440  0.00  0.00     0.000 HD
BRANCH 21 30
ATOM     28   N  A00 X   2     161.702  48.179  63.8840  0.00  0.00     0.000 N
ATOM     30  HD  A00 X   2     162.465  47.854  63.6330  0.00  0.00     0.000 HD
ATOM     30   O  A00 X   2     163.884  48.825  63.3550  0.00  0.00     0.000 OA
ATOM     31   S  A00 X   2     163.144  48.405  64.4910  0.00  0.00     0.000 S
ATOM     32   O  A00 X   2     162.939  49.414  65.4840  0.00  0.00     0.000 OA
ATOM     33   O  A00 X   2     163.542  47.174  65.1070  0.00  0.00     0.000 OA
ENDBRANCH 21 30
BRANCH 24 34
ATOM     34   C  A00 X   2     158.034  44.368  64.3740  0.00  0.00     0.000 C
ATOM     35   O  A00 X   2     157.857  43.611  67.9310  0.00  0.00     0.000 OA
ATOM     36   O  A00 X   2     158.396  43.916  65.6940  0.00  0.00     0.000 O
ATOM     37   O  A00 X   2     158.095  45.795  67.0540  0.00  0.00     0.000 OA
ATOM     38   S  A00 X   2     157.522  44.497  66.8650  0.00  0.00     0.000 S
ATOM     39   O  A00 X   2     156.161  44.431  66.4260  0.00  0.00     0.000 OA
ENDBRANCH 24 34
BRANCH 20 40
ATOM     40  O4  A00 X   3     159.531  47.021  61.7510  0.00  0.00     0.000 O
BRANCH 40 44
ATOM     41  C1  A00 X   3     157.041  45.793  59.4250  0.00  0.00     0.000 C
ATOM     42  C2  A00 X   3     158.456  46.267  59.0300  0.00  0.00     0.000 C
ATOM     43  C3  A00 X   3     158.760  47.665  59.6280  0.00  0.00     0.000 C
ATOM     44  C4  A00 X   3     158.484  47.789  61.1210  0.00  0.00     0.000 C
ATOM     45  C5  A00 X   3     157.043  47.299  61.4380  0.00  0.00     0.000 C
ATOM     46  O5  A00 X   3     156.797  45.982  60.8460  0.00  0.00     0.000 O
ATOM     47   O  A00 X   3     160.010  48.242  59.2560  0.00  0.00     0.000 O
ATOM     49  HD  A00 X   3     160.008  48.501  60.0820  0.00  0.00     0.000 HD
BRANCH 42 49
ATOM     49   O  A00 X   3     159.386  45.272  59.5130  0.00  0.00     0.000 O
ATOM     50   O  A00 X   3     161.755  44.939  59.4480  0.00  0.00     0.000 OA
ATOM     51   O  A00 X   3     160.660  45.724  57.5050  0.00  0.00     0.000 OA
ATOM     52   O  A00 X   3     160.241  43.510  58.2190  0.00  0.00     0.000 OA
ATOM     53   S  A00 X   3     160.588  44.826  58.6310  0.00  0.00     0.000 S
ENDBRANCH 42 49
BRANCH 45 54
ATOM     54   C  A00 X   3     155.990  48.342  61.0460  0.00  0.00     0.000 C
ATOM     55   O  A00 X   3     156.226  49.169  60.1890  0.00  0.00     0.000 OA
ATOM     56   O  A00 X   3     154.896  48.362  61.5900  0.00  0.00     0.000 OA
ENDBRANCH 45 54
BRANCH 41 57
ATOM     57  O4  A00 X   4     156.027  46.371  58.5730  0.00  0.00     0.000 O
BRANCH 57 61
ATOM     58  C1  A00 X   4     151.959  45.261  57.6470  0.00  0.00     0.000 C
ATOM     59  C2  A00 X   4     152.279  45.786  59.0690  0.00  0.00     0.000 C
ATOM     60  C3  A00 X   4     153.652  46.479  59.1740  0.00  0.00     0.000 C
ATOM     61  C4  A00 X   4     154.770  45.638  58.5210  0.00  0.00     0.000 C
ATOM     62  C5  A00 X   4     154.342  45.410  57.0500  0.00  0.00     0.000 C
ATOM     63  O5  A00 X   4     153.110  44.645  57.0250  0.00  0.00     0.000 O
BRANCH 59 66
ATOM     64   N  A00 X   4     151.759  46.336  60.3340  0.00  0.00     0.000 N
ATOM     66  HD  A00 X   4     152.197  46.157  61.0590  0.00  0.00     0.000 HD
ATOM     66   O  A00 X   4     149.927  44.784  60.1400  0.00  0.00     0.000 OA
ATOM     67   S  A00 X   4     150.227  46.062  60.7060  0.00  0.00     0.000 S
ATOM     68   O  A00 X   4     150.298  46.101  62.1380  0.00  0.00     0.000 OA
ATOM     69   O  A00 X   4     149.613  47.217  60.1160  0.00  0.00     0.000 OA
ENDBRANCH 59 66
BRANCH 62 70
ATOM     70   C  A00 X   4     155.397  44.671  56.1930  0.00  0.00     0.000 C
ATOM     71   O  A00 X   4     156.565  41.257  56.4910  0.00  0.00     0.000 OA
ATOM     72   O  A00 X   4     157.760  43.276  56.2980  0.00  0.00     0.000 OA
ATOM     73   O  A00 X   4     155.364  43.268  56.5040  0.00  0.00     0.000 O
ATOM     74   O  A00 X   4     156.710  42.697  58.4190  0.00  0.00     0.000 OA
ATOM     75   S  A00 X   4     156.692  42.595  56.9960  0.00  0.00     0.000 S
ENDBRANCH 62 70
ENDBRANCH 57 61
ENDBRANCH 41 57
ENDBRANCH 40 44
ENDBRANCH 20 40
ENDBRANCH 19 23
ENDBRANCH 1 19
TORSDOF 14
ENDMDL
MODEL 2
REMARK VINA RESULT:      -5.4      2.910      9.951
ROOT
ATOM      1  C1  A00 X   1     152.437  46.393  58.1000  0.00  0.00     0.000 C
ATOM      2  C2  A00 X   1     151.341  47.126  58.9180  0.00  0.00     0.000 C
ATOM      3  C3  A00 X   1     151.078  46.580  60.3600  0.00  0.00     0.000 C
ATOM      4  C4  A00 X   1     151.663  45.175  60.6600  0.00  0.00     0.000 C
ATOM      5  C5  A00 X   1     151.901  44.365  59.3850  0.00  0.00     0.000 C
ATOM      6  O5  A00 X   1     152.882  45.126  58.6450  0.00  0.00     0.000 O
ATOM      7   O  A00 X   1     149.670  46.484  60.5640  0.00  0.00     0.000 O
ATOM      9  HD  A00 X   1     150.027  45.774  60.9090  0.00  0.00     0.000 HD
ATOM      9   O  A00 X   1     152.874  45.263  61.4090  0.00  0.00     0.000 O
ATOM     11  HD  A00 X   1     153.231  44.554  61.7540  0.00  0.00     0.000 HD
ENDROOT
BRANCH 2 11
ATOM     11   O  A00 X   1     151.713  48.515  59.0030  0.00  0.00     0.000 O
ATOM     12   O  A00 X   1     150.655  50.021  60.5460  0.00  0.00     0.000 OA
ATOM     13   O  A00 X   1     149.334  49.018  58.7670  0.00  0.00     0.000 OA
ATOM     14   O  A00 X   1     151.020  50.617  58.2600  0.00  0.00     0.000 OA
ATOM     15   S  A00 X   1     150.587  49.593  59.1720  0.00  0.00     0.000 S
ENDBRANCH 2 11
BRANCH 5 16
ATOM     16   C  A00 X   1     150.640  44.042  58.5780  0.00  0.00     0.000 C
ATOM     17   O  A00 X   1     149.557  44.215  59.0980  0.00  0.00     0.000 OA
ATOM     18   O  A00 X   1     150.685  43.627  57.4370  0.00  0.00     0.000 OA
ENDBRANCH 5 16
BRANCH 1 19
ATOM     19  O4  A00 X   2     152.104  46.275  56.6950  0.00  0.00     0.000 O
BRANCH 19 23
ATOM     20  C1  A00 X   2     156.091  47.128  55.3740  0.00  0.00     0.000 C
ATOM     21  C2  A00 X   2     155.064  48.286  55.3420  0.00  0.00     0.000 C
ATOM     22  C3  A00 X   2     153.843  47.962  56.2260  0.00  0.00     0.000 C
ATOM     23  C4  A00 X   2     153.226  46.603  55.8260  0.00  0.00     0.000 C
ATOM     24  C5  A00 X   2     154.354  45.536  55.8800  0.00  0.00     0.000 C
ATOM     25  O5  A00 X   2     155.404  45.919  54.9540  0.00  0.00     0.000 O
ATOM     26   O  A00 X   2     152.954  49.092  56.2180  0.00  0.00     0.000 O
ATOM     28  HD  A00 X   2     152.954  49.149  55.3530  0.00  0.00     0.000 HD
BRANCH 21 30
ATOM     28   N  A00 X   2     154.814  49.658  55.7930  0.00  0.00     0.000 N
ATOM     30  HD  A00 X   2     155.367  49.710  55.1290  0.00  0.00     0.000 HD
ATOM     30   O  A00 X   2     155.535  51.118  54.1170  0.00  0.00     0.000 OA
ATOM     31   S  A00 X   2     155.879  50.775  55.4510  0.00  0.00     0.000 S
ATOM     32   O  A00 X   2     155.623  51.795  56.4210  0.00  0.00     0.000 OA
ATOM     33   O  A00 X   2     157.175  50.203  55.6610  0.00  0.00     0.000 OA
ENDBRANCH 21 30
BRANCH 24 34
ATOM     34   C  A00 X   2     153.953  44.048  55.7460  0.00  0.00     0.000 C
ATOM     35   O  A00 X   2     156.010  41.269  56.8860  0.00  0.00     0.000 OA
ATOM     36   O  A00 X   2     155.086  43.181  55.9490  0.00  0.00     0.000 O
ATOM     37   O  A00 X   2     155.313  43.052  58.2730  0.00  0.00     0.000 OA
ATOM     38   S  A00 X   2     154.971  42.202  57.1740  0.00  0.00     0.000 S
ATOM     39   O  A00 X   2     153.645  41.663  57.1390  0.00  0.00     0.000 OA
ENDBRANCH 24 34
BRANCH 20 40
ATOM     40  O4  A00 X   3     156.489  47.001  56.7470  0.00  0.00     0.000 O
BRANCH 40 44
ATOM     41  C1  A00 X   3     157.659  45.671  59.9070  0.00  0.00     0.000 C
ATOM     42  C2  A00 X   3     157.590  47.173  59.5560  0.00  0.00     0.000 C
ATOM     43  C3  A00 X   3     158.280  47.458  58.1970  0.00  0.00     0.000 C
ATOM     44  C4  A00 X   3     157.828  46.556  57.0560  0.00  0.00     0.000 C
ATOM     45  C5  A00 X   3     157.931  45.065  57.4830  0.00  0.00     0.000 C
ATOM     46  O5  A00 X   3     157.276  44.845  58.7740  0.00  0.00     0.000 O
ATOM     47   O  A00 X   3     158.353  48.829  57.8110  0.00  0.00     0.000 O
ATOM     49  HD  A00 X   3     158.186  48.501  57.0280  0.00  0.00     0.000 HD
BRANCH 42 49
ATOM     49   O  A00 X   3     156.192  47.537  59.5240  0.00  0.00     0.000 O
ATOM     50   O  A00 X   3     154.926  49.515  59.0610  0.00  0.00     0.000 OA
ATOM     51   O  A00 X   3     156.904  49.700  60.3430  0.00  0.00     0.000 OA
ATOM     52   O  A00 X   3     155.048  48.582  61.2880  0.00  0.00     0.000 OA
ATOM     53   S  A00 X   3     155.725  48.913  60.0820  0.00  0.00     0.000 S
ENDBRANCH 42 49
BRANCH 45 54
ATOM     54   C  A00 X   3     159.379  44.563  57.4480  0.00  0.00     0.000 C
ATOM     55   O  A00 X   3     159.636  43.398  57.6700  0.00  0.00     0.000 OA
ATOM     56   O  A00 X   3     160.300  45.327  57.1990  0.00  0.00     0.000 OA
ENDBRANCH 45 54
BRANCH 41 57
ATOM     57  O4  A00 X   4     158.934  45.317  60.4880  0.00  0.00     0.000 O
BRANCH 57 61
ATOM     58  C1  A00 X   4     160.069  42.216  63.2690  0.00  0.00     0.000 C
ATOM     59  C2  A00 X   4     160.333  41.991  61.7590  0.00  0.00     0.000 C
ATOM     60  C3  A00 X   4     160.227  43.279  60.9180  0.00  0.00     0.000 C
ATOM     61  C4  A00 X   4     158.945  44.073  61.2450  0.00  0.00     0.000 C
ATOM     62  C5  A00 X   4     158.992  44.371  62.7640  0.00  0.00     0.000 C
ATOM     63  O5  A00 X   4     158.963  43.119  63.4970  0.00  0.00     0.000 O
BRANCH 59 66
ATOM     64   N  A00 X   4     161.391  41.290  61.0090  0.00  0.00     0.000 N
ATOM     66  HD  A00 X   4     161.288  41.212  60.1530  0.00  0.00     0.000 HD
ATOM     66   O  A00 X   4     160.651  39.255  62.0620  0.00  0.00     0.000 OA
ATOM     67   S  A00 X   4     161.832  39.834  61.5020  0.00  0.00     0.000 S
ATOM     68   O  A00 X   4     162.272  39.264  60.2630  0.00  0.00     0.000 OA
ATOM     69   O  A00 X   4     162.897  40.183  62.4000  0.00  0.00     0.000 OA
ENDBRANCH 59 66
BRANCH 62 70
ATOM     70   C  A00 X   4     157.833  45.263  63.2700  0.00  0.00     0.000 C
ATOM     71   O  A00 X   4     156.268  45.303  66.5340  0.00  0.00     0.000 OA
ATOM     72   O  A00 X   4     155.321  45.220  64.3800  0.00  0.00     0.000 OA
ATOM     73   O  A00 X   4     157.704  45.113  64.6930  0.00  0.00     0.000 O
ATOM     74   O  A00 X   4     156.350  43.221  65.3210  0.00  0.00     0.000 OA
ATOM     75   S  A00 X   4     156.317  44.647  65.2580  0.00  0.00     0.000 S
ENDBRANCH 62 70
ENDBRANCH 57 61
ENDBRANCH 41 57
ENDBRANCH 40 44
ENDBRANCH 20 40
ENDBRANCH 19 23
ENDBRANCH 1 19
TORSDOF 14
ENDMDL
MODEL 3
REMARK VINA RESULT:      -5.1      7.500     12.940
ROOT
ATOM      1  C1  A00 X   1     151.609  46.260  55.1380  0.00  0.00     0.000 C
ATOM      2  C2  A00 X   1     151.691  47.184  56.3820  0.00  0.00     0.000 C
ATOM      3  C3  A00 X   1     152.781  46.815  57.4420  0.00  0.00     0.000 C
ATOM      4  C4  A00 X   1     153.385  45.393  57.3120  0.00  0.00     0.000 C
ATOM      5  C5  A00 X   1     152.459  44.440  56.5560  0.00  0.00     0.000 C
ATOM      6  O5  A00 X   1     152.342  45.013  55.2350  0.00  0.00     0.000 O
ATOM      7   O  A00 X   1     152.199  46.891  58.7410  0.00  0.00     0.000 O
ATOM      9  HD  A00 X   1     152.701  46.185  58.7270  0.00  0.00     0.000 HD
ATOM      9   O  A00 X   1     154.664  45.425  56.6810  0.00  0.00     0.000 O
ATOM     11  HD  A00 X   1     155.166  44.719  56.6670  0.00  0.00     0.000 HD
ENDROOT
BRANCH 2 11
ATOM     11   O  A00 X   1     151.926  48.527  55.9150  0.00  0.00     0.000 O
ATOM     12   O  A00 X   1     151.924  50.408  57.4080  0.00  0.00     0.000 OA
ATOM     13   O  A00 X   1     149.873  49.139  57.0900  0.00  0.00     0.000 OA
ATOM     14   O  A00 X   1     150.759  50.460  55.3210  0.00  0.00     0.000 OA
ATOM     15   S  A00 X   1     151.060  49.695  56.5010  0.00  0.00     0.000 S
ENDBRANCH 2 11
BRANCH 5 16
ATOM     16   C  A00 X   1     151.110  44.175  57.2310  0.00  0.00     0.000 C
ATOM     17   O  A00 X   1     150.284  43.512  56.6390  0.00  0.00     0.000 OA
ATOM     18   O  A00 X   1     150.841  44.597  58.3380  0.00  0.00     0.000 OA
ENDBRANCH 5 16
BRANCH 1 19
ATOM     19  O4  A00 X   2     150.249  46.040  54.6910  0.00  0.00     0.000 O
BRANCH 19 23
ATOM     20  C1  A00 X   2     151.137  45.661  50.5150  0.00  0.00     0.000 C
ATOM     21  C2  A00 X   2     151.098  47.089  51.1110  0.00  0.00     0.000 C
ATOM     22  C3  A00 X   2     151.202  47.046  52.6500  0.00  0.00     0.000 C
ATOM     23  C4  A00 X   2     150.117  46.119  53.2420  0.00  0.00     0.000 C
ATOM     24  C5  A00 X   2     150.250  44.733  52.5540  0.00  0.00     0.000 C
ATOM     25  O5  A00 X   2     150.060  44.900  51.1250  0.00  0.00     0.000 O
ATOM     26   O  A00 X   2     151.231  48.394  53.1480  0.00  0.00     0.000 O
ATOM     28  HD  A00 X   2     150.533  48.631  52.6930  0.00  0.00     0.000 HD
BRANCH 21 30
ATOM     28   N  A00 X   2     150.552  47.568  49.8370  0.00  0.00     0.000 N
ATOM     30  HD  A00 X   2     150.829  48.265  50.2690  0.00  0.00     0.000 HD
ATOM     30   O  A00 X   2     151.305  49.754  49.4990  0.00  0.00     0.000 OA
ATOM     31   S  A00 X   2     150.081  49.073  49.7310  0.00  0.00     0.000 S
ATOM     32   O  A00 X   2     149.173  49.066  48.6260  0.00  0.00     0.000 OA
ATOM     33   O  A00 X   2     149.385  49.384  50.9440  0.00  0.00     0.000 OA
ENDBRANCH 21 30
BRANCH 24 34
ATOM     34   C  A00 X   2     149.430  43.555  53.1310  0.00  0.00     0.000 C
ATOM     35   O  A00 X   2     146.570  42.046  51.4570  0.00  0.00     0.000 OA
ATOM     36   O  A00 X   2     148.172  43.406  52.4420  0.00  0.00     0.000 O
ATOM     37   O  A00 X   2     148.716  42.249  50.4830  0.00  0.00     0.000 OA
ATOM     38   S  A00 X   2     147.977  42.039  51.6900  0.00  0.00     0.000 S
ATOM     39   O  A00 X   2     148.439  41.017  52.5820  0.00  0.00     0.000 OA
ENDBRANCH 24 34
BRANCH 20 40
ATOM     40  O4  A00 X   3     152.400  45.109  50.9140  0.00  0.00     0.000 O
BRANCH 40 44
ATOM     41  C1  A00 X   3     154.809  42.622  51.9790  0.00  0.00     0.000 C
ATOM     42  C2  A00 X   3     155.164  44.058  51.5360  0.00  0.00     0.000 C
ATOM     43  C3  A00 X   3     154.511  44.395  50.1710  0.00  0.00     0.000 C
ATOM     44  C4  A00 X   3     153.019  44.097  50.0910  0.00  0.00     0.000 C
ATOM     45  C5  A00 X   3     152.743  42.636  50.5470  0.00  0.00     0.000 C
ATOM     46  O5  A00 X   3     153.386  42.359  51.8330  0.00  0.00     0.000 O
ATOM     47   O  A00 X   3     154.842  45.668  49.6200  0.00  0.00     0.000 O
ATOM     49  HD  A00 X   3     154.007  45.660  49.3900  0.00  0.00     0.000 HD
BRANCH 42 49
ATOM     49   O  A00 X   3     154.702  44.948  52.5760  0.00  0.00     0.000 O
ATOM     50   O  A00 X   3     154.582  47.316  52.9020  0.00  0.00     0.000 OA
ATOM     51   O  A00 X   3     156.526  46.397  51.9190  0.00  0.00     0.000 OA
ATOM     52   O  A00 X   3     156.087  45.934  54.1950  0.00  0.00     0.000 OA
ATOM     53   S  A00 X   3     155.511  46.230  52.9290  0.00  0.00     0.000 S
ENDBRANCH 42 49
BRANCH 45 54
ATOM     54   C  A00 X   3     153.113  41.622  49.4570  0.00  0.00     0.000 C
ATOM     55   O  A00 X   3     153.463  41.997  48.3570  0.00  0.00     0.000 OA
ATOM     56   O  A00 X   3     153.061  40.422  49.6760  0.00  0.00     0.000 OA
ENDBRANCH 45 54
BRANCH 41 57
ATOM     57  O4  A00 X   4     155.655  41.641  51.3390  0.00  0.00     0.000 O
BRANCH 57 61
ATOM     58  C1  A00 X   4     157.419  38.029  52.9150  0.00  0.00     0.000 C
ATOM     59  C2  A00 X   4     156.306  37.904  51.8450  0.00  0.00     0.000 C
ATOM     60  C3  A00 X   4     156.012  39.226  51.1060  0.00  0.00     0.000 C
ATOM     61  C4  A00 X   4     155.846  40.407  52.0880  0.00  0.00     0.000 C
ATOM     62  C5  A00 X   4     157.156  40.476  52.9110  0.00  0.00     0.000 C
ATOM     63  O5  A00 X   4     157.305  39.253  53.6760  0.00  0.00     0.000 O
BRANCH 59 66
ATOM     64   N  A00 X   4     155.618  37.547  53.0990  0.00  0.00     0.000 N
ATOM     66  HD  A00 X   4     156.053  37.660  53.8390  0.00  0.00     0.000 HD
ATOM     66   O  A00 X   4     155.817  35.241  52.4340  0.00  0.00     0.000 OA
ATOM     67   S  A00 X   4     154.976  36.088  53.2210  0.00  0.00     0.000 S
ATOM     68   O  A00 X   4     155.054  35.889  54.6390  0.00  0.00     0.000 OA
ATOM     69   O  A00 X   4     153.651  36.352  52.7360  0.00  0.00     0.000 OA
ENDBRANCH 59 66
BRANCH 62 70
ATOM     70   C  A00 X   4     157.228  41.677  53.8850  0.00  0.00     0.000 C
ATOM     71   O  A00 X   4     156.313  41.806  57.3850  0.00  0.00     0.000 OA
ATOM     72   O  A00 X   4     155.751  43.233  55.5990  0.00  0.00     0.000 OA
ATOM     73   O  A00 X   4     157.003  41.214  55.2260  0.00  0.00     0.000 O
ATOM     74   O  A00 X   4     154.665  41.060  55.7910  0.00  0.00     0.000 OA
ATOM     75   S  A00 X   4     155.824  41.857  56.0360  0.00  0.00     0.000 S
ENDBRANCH 62 70
ENDBRANCH 57 61
ENDBRANCH 41 57
ENDBRANCH 40 44
ENDBRANCH 20 40
ENDBRANCH 19 23
ENDBRANCH 1 19
TORSDOF 14
ENDMDL
MODEL 4
REMARK VINA RESULT:      -4.8     26.584     33.547
ROOT
ATOM      1  C1  A00 X   1     123.918  37.076  63.3060  0.00  0.00     0.000 C
ATOM      2  C2  A00 X   1     122.371  37.053  63.4240  0.00  0.00     0.000 C
ATOM      3  C3  A00 X   1     121.685  35.668  63.1860  0.00  0.00     0.000 C
ATOM      4  C4  A00 X   1     122.571  34.590  62.5100  0.00  0.00     0.000 C
ATOM      5  C5  A00 X   1     123.728  35.204  61.7230  0.00  0.00     0.000 C
ATOM      6  O5  A00 X   1     124.519  35.898  62.7140  0.00  0.00     0.000 O
ATOM      7   O  A00 X   1     120.557  35.857  62.3330  0.00  0.00     0.000 O
ATOM      9  HD  A00 X   1     120.955  35.132  62.0740  0.00  0.00     0.000 HD
ATOM      9   O  A00 X   1     123.079  33.658  63.4650  0.00  0.00     0.000 O
ATOM     11  HD  A00 X   1     123.476  32.934  63.2060  0.00  0.00     0.000 HD
ENDROOT
BRANCH 2 11
ATOM     11   O  A00 X   1     122.024  37.528  64.7390  0.00  0.00     0.000 O
ATOM     12   O  A00 X   1     119.771  37.450  65.5650  0.00  0.00     0.000 OA
ATOM     13   O  A00 X   1     120.287  38.851  63.6450  0.00  0.00     0.000 OA
ATOM     14   O  A00 X   1     121.126  39.404  65.8010  0.00  0.00     0.000 OA
ATOM     15   S  A00 X   1     120.700  38.346  64.9250  0.00  0.00     0.000 S
ENDBRANCH 2 11
BRANCH 5 16
ATOM     16   C  A00 X   1     123.311  36.088  60.5430  0.00  0.00     0.000 C
ATOM     17   O  A00 X   1     124.171  36.702  59.9440  0.00  0.00     0.000 OA
ATOM     18   O  A00 X   1     122.156  36.190  60.1810  0.00  0.00     0.000 OA
ENDBRANCH 5 16
BRANCH 1 19
ATOM     19  O4  A00 X   2     124.416  38.289  62.6890  0.00  0.00     0.000 O
BRANCH 19 23
ATOM     20  C1  A00 X   2     123.827  42.398  63.7560  0.00  0.00     0.000 C
ATOM     21  C2  A00 X   2     124.201  41.412  64.8900  0.00  0.00     0.000 C
ATOM     22  C3  A00 X   2     124.793  40.109  64.3120  0.00  0.00     0.000 C
ATOM     23  C4  A00 X   2     123.833  39.491  63.2700  0.00  0.00     0.000 C
ATOM     24  C5  A00 X   2     123.523  40.579  62.2060  0.00  0.00     0.000 C
ATOM     25  O5  A00 X   2     122.906  41.715  62.8650  0.00  0.00     0.000 O
ATOM     26   O  A00 X   2     125.186  39.258  65.4020  0.00  0.00     0.000 O
ATOM     28  HD  A00 X   2     124.422  39.334  65.8020  0.00  0.00     0.000 HD
BRANCH 21 30
ATOM     28   N  A00 X   2     125.248  41.431  65.9160  0.00  0.00     0.000 N
ATOM     30  HD  A00 X   2     124.575  41.872  66.2360  0.00  0.00     0.000 HD
ATOM     30   O  A00 X   2     124.271  42.067  67.9400  0.00  0.00     0.000 OA
ATOM     31   S  A00 X   2     125.217  42.571  67.0100  0.00  0.00     0.000 S
ATOM     32   O  A00 X   2     126.565  42.621  67.4850  0.00  0.00     0.000 OA
ATOM     33   O  A00 X   2     124.882  43.792  66.3390  0.00  0.00     0.000 OA
ENDBRANCH 21 30
BRANCH 24 34
ATOM     34   C  A00 X   2     122.768  40.148  60.9260  0.00  0.00     0.000 C
ATOM     35   O  A00 X   2     123.428  41.502  57.6120  0.00  0.00     0.000 OA
ATOM     36   O  A00 X   2     122.984  41.083  59.8510  0.00  0.00     0.000 O
ATOM     37   O  A00 X   2     125.074  40.496  58.9810  0.00  0.00     0.000 OA
ATOM     38   S  A00 X   2     123.700  40.492  58.5820  0.00  0.00     0.000 S
ATOM     39   O  A00 X   2     123.087  39.224  58.3250  0.00  0.00     0.000 OA
ENDBRANCH 24 34
BRANCH 20 40
ATOM     40  O4  A00 X   3     125.052  42.673  63.0620  0.00  0.00     0.000 O
BRANCH 40 44
ATOM     41  C1  A00 X   3     127.667  43.589  60.7280  0.00  0.00     0.000 C
ATOM     42  C2  A00 X   3     127.793  43.665  62.2650  0.00  0.00     0.000 C
ATOM     43  C3  A00 X   3     126.597  44.434  62.8820  0.00  0.00     0.000 C
ATOM     44  C4  A00 X   3     125.227  43.953  62.4190  0.00  0.00     0.000 C
ATOM     45  C5  A00 X   3     125.177  43.908  60.8650  0.00  0.00     0.000 C
ATOM     46  O5  A00 X   3     126.330  43.183  60.3260  0.00  0.00     0.000 O
ATOM     47   O  A00 X   3     126.651  44.642  64.2920  0.00  0.00     0.000 O
ATOM     49  HD  A00 X   3     125.802  44.480  64.2360  0.00  0.00     0.000 HD
BRANCH 42 49
ATOM     49   O  A00 X   3     127.856  42.307  62.7520  0.00  0.00     0.000 O
ATOM     50   O  A00 X   3     128.189  41.239  64.8690  0.00  0.00     0.000 OA
ATOM     51   O  A00 X   3     129.515  43.118  64.3170  0.00  0.00     0.000 OA
ATOM     52   O  A00 X   3     129.845  41.112  63.1110  0.00  0.00     0.000 OA
ATOM     53   S  A00 X   3     128.907  41.905  63.8270  0.00  0.00     0.000 S
ENDBRANCH 42 49
BRANCH 45 54
ATOM     54   C  A00 X   3     125.009  45.308  60.2620  0.00  0.00     0.000 C
ATOM     55   O  A00 X   3     125.136  45.487  59.0680  0.00  0.00     0.000 OA
ATOM     56   O  A00 X   3     124.748  46.267  60.9710  0.00  0.00     0.000 OA
ENDBRANCH 45 54
BRANCH 41 57
ATOM     57  O4  A00 X   4     128.128  44.803  60.0940  0.00  0.00     0.000 O
BRANCH 57 61
ATOM     58  C1  A00 X   4     130.928  45.186  56.8300  0.00  0.00     0.000 C
ATOM     59  C2  A00 X   4     129.523  45.823  56.6800  0.00  0.00     0.000 C
ATOM     60  C3  A00 X   4     128.756  45.938  58.0130  0.00  0.00     0.000 C
ATOM     61  C4  A00 X   4     128.792  44.617  58.8110  0.00  0.00     0.000 C
ATOM     62  C5  A00 X   4     130.288  44.279  59.0270  0.00  0.00     0.000 C
ATOM     63  O5  A00 X   4     130.919  44.061  57.7390  0.00  0.00     0.000 O
BRANCH 59 66
ATOM     64   N  A00 X   4     128.340  45.593  55.8320  0.00  0.00     0.000 N
ATOM     66  HD  A00 X   4     128.043  44.782  55.7700  0.00  0.00     0.000 HD
ATOM     66   O  A00 X   4     129.743  46.045  53.9270  0.00  0.00     0.000 OA
ATOM     67   S  A00 X   4     128.373  46.131  54.3250  0.00  0.00     0.000 S
ATOM     68   O  A00 X   4     127.488  45.194  53.6970  0.00  0.00     0.000 OA
ATOM     69   O  A00 X   4     127.811  47.438  54.5110  0.00  0.00     0.000 OA
ENDBRANCH 59 66
BRANCH 62 70
ATOM     70   C  A00 X   4     130.534  43.033  59.9110  0.00  0.00     0.000 C
ATOM     71   O  A00 X   4     132.787  42.662  62.7210  0.00  0.00     0.000 OA
ATOM     72   O  A00 X   4     132.464  41.306  60.8230  0.00  0.00     0.000 OA
ATOM     73   O  A00 X   4     131.320  43.409  61.0530  0.00  0.00     0.000 O
ATOM     74   O  A00 X   4     133.689  43.402  60.6100  0.00  0.00     0.000 OA
ATOM     75   S  A00 X   4     132.677  42.658  61.2890  0.00  0.00     0.000 S
ENDBRANCH 62 70
ENDBRANCH 57 61
ENDBRANCH 41 57
ENDBRANCH 40 44
ENDBRANCH 20 40
ENDBRANCH 19 23
ENDBRANCH 1 19
TORSDOF 14
ENDMDL
MODEL 5
REMARK VINA RESULT:      -4.5      7.139     13.257
ROOT
ATOM      1  C1  A00 X   1     154.346  42.858  54.5740  0.00  0.00     0.000 C
ATOM      2  C2  A00 X   1     153.818  43.472  55.8980  0.00  0.00     0.000 C
ATOM      3  C3  A00 X   1     154.734  44.545  56.5720  0.00  0.00     0.000 C
ATOM      4  C4  A00 X   1     156.194  44.599  56.0530  0.00  0.00     0.000 C
ATOM      5  C5  A00 X   1     156.623  43.285  55.3990  0.00  0.00     0.000 C
ATOM      6  O5  A00 X   1     155.736  43.131  54.2690  0.00  0.00     0.000 O
ATOM      7   O  A00 X   1     154.811  44.270  57.9690  0.00  0.00     0.000 O
ATOM      9  HD  A00 X   1     155.607  44.492  57.7080  0.00  0.00     0.000 HD
ATOM      9   O  A00 X   1     156.383  45.677  55.1370  0.00  0.00     0.000 O
ATOM     11  HD  A00 X   1     157.179  45.900  54.8770  0.00  0.00     0.000 HD
ENDROOT
BRANCH 2 11
ATOM     11   O  A00 X   1     152.530  44.058  55.6260  0.00  0.00     0.000 O
ATOM     12   O  A00 X   1     151.444  45.520  57.1910  0.00  0.00     0.000 OA
ATOM     13   O  A00 X   1     151.841  43.201  57.8080  0.00  0.00     0.000 OA
ATOM     14   O  A00 X   1     150.267  43.744  56.1090  0.00  0.00     0.000 OA
ATOM     15   S  A00 X   1     151.475  44.139  56.7830  0.00  0.00     0.000 S
ENDBRANCH 2 11
BRANCH 5 16
ATOM     16   C  A00 X   1     156.640  42.072  56.3350  0.00  0.00     0.000 C
ATOM     17   O  A00 X   1     156.575  42.260  57.5320  0.00  0.00     0.000 OA
ATOM     18   O  A00 X   1     156.710  40.932  55.9220  0.00  0.00     0.000 OA
ENDBRANCH 5 16
BRANCH 1 19
ATOM     19  O4  A00 X   2     154.046  41.446  54.4500  0.00  0.00     0.000 O
BRANCH 19 23
ATOM     20  C1  A00 X   2     154.014  40.982  50.1900  0.00  0.00     0.000 C
ATOM     21  C2  A00 X   2     152.990  41.964  50.8100  0.00  0.00     0.000 C
ATOM     22  C3  A00 X   2     153.398  42.348  52.2470  0.00  0.00     0.000 C
ATOM     23  C4  A00 X   2     153.612  41.083  53.1080  0.00  0.00     0.000 C
ATOM     24  C5  A00 X   2     154.639  40.178  52.3740  0.00  0.00     0.000 C
ATOM     25  O5  A00 X   2     154.106  39.830  51.0700  0.00  0.00     0.000 O
ATOM     26   O  A00 X   2     152.457  43.311  52.7520  0.00  0.00     0.000 O
ATOM     28  HD  A00 X   2     151.771  42.832  52.5300  0.00  0.00     0.000 HD
BRANCH 21 30
ATOM     28   N  A00 X   2     152.017  41.564  49.7880  0.00  0.00     0.000 N
ATOM     30  HD  A00 X   2     151.733  42.309  50.1270  0.00  0.00     0.000 HD
ATOM     30   O  A00 X   2     150.690  43.419  49.2820  0.00  0.00     0.000 OA
ATOM     31   S  A00 X   2     150.547  42.137  49.8760  0.00  0.00     0.000 S
ATOM     32   O  A00 X   2     149.774  41.203  49.1170  0.00  0.00     0.000 OA
ATOM     33   O  A00 X   2     150.159  42.100  51.2540  0.00  0.00     0.000 OA
ENDBRANCH 21 30
BRANCH 24 34
ATOM     34   C  A00 X   2     155.202  38.954  53.1350  0.00  0.00     0.000 C
ATOM     35   O  A00 X   2     153.137  36.367  54.6510  0.00  0.00     0.000 OA
ATOM     36   O  A00 X   2     154.177  38.307  53.9150  0.00  0.00     0.000 O
ATOM     37   O  A00 X   2     153.017  36.987  52.3720  0.00  0.00     0.000 OA
ATOM     38   S  A00 X   2     153.866  36.819  53.5120  0.00  0.00     0.000 S
ATOM     39   O  A00 X   2     155.132  36.182  53.3080  0.00  0.00     0.000 OA
ENDBRANCH 24 34
BRANCH 20 40
ATOM     40  O4  A00 X   3     155.267  41.681  50.1830  0.00  0.00     0.000 O
BRANCH 40 44
ATOM     41  C1  A00 X   3     158.828  41.730  50.8430  0.00  0.00     0.000 C
ATOM     42  C2  A00 X   3     158.022  42.919  50.2760  0.00  0.00     0.000 C
ATOM     43  C3  A00 X   3     157.169  42.480  49.0580  0.00  0.00     0.000 C
ATOM     44  C4  A00 X   3     156.317  41.239  49.2960  0.00  0.00     0.000 C
ATOM     45  C5  A00 X   3     157.198  40.089  49.8600  0.00  0.00     0.000 C
ATOM     46  O5  A00 X   3     157.992  40.551  51.0000  0.00  0.00     0.000 O
ATOM     47   O  A00 X   3     156.446  43.517  48.3980  0.00  0.00     0.000 O
ATOM     49  HD  A00 X   3     155.837  42.904  48.3430  0.00  0.00     0.000 HD
BRANCH 42 49
ATOM     49   O  A00 X   3     157.193  43.418  51.3490  0.00  0.00     0.000 O
ATOM     50   O  A00 X   3     155.529  45.120  51.6040  0.00  0.00     0.000 OA
ATOM     51   O  A00 X   3     157.457  45.593  50.3210  0.00  0.00     0.000 OA
ATOM     52   O  A00 X   3     157.699  45.304  52.6540  0.00  0.00     0.000 OA
ATOM     53   S  A00 X   3     156.944  44.947  51.5030  0.00  0.00     0.000 S
ENDBRANCH 42 49
BRANCH 45 54
ATOM     54   C  A00 X   3     158.042  39.430  48.7630  0.00  0.00     0.000 C
ATOM     55   O  A00 X   3     158.669  38.415  48.9900  0.00  0.00     0.000 OA
ATOM     56   O  A00 X   3     158.101  39.915  47.6440  0.00  0.00     0.000 OA
ENDBRANCH 45 54
BRANCH 41 57
ATOM     57  O4  A00 X   4     160.038  41.497  50.0880  0.00  0.00     0.000 O
BRANCH 57 61
ATOM     58  C1  A00 X   4     163.972  40.104  51.1920  0.00  0.00     0.000 C
ATOM     59  C2  A00 X   4     162.765  39.155  51.3970  0.00  0.00     0.000 C
ATOM     60  C3  A00 X   4     161.494  39.606  50.6490  0.00  0.00     0.000 C
ATOM     61  C4  A00 X   4     161.195  41.103  50.8790  0.00  0.00     0.000 C
ATOM     62  C5  A00 X   4     162.453  41.876  50.4110  0.00  0.00     0.000 C
ATOM     63  O5  A00 X   4     163.582  41.496  51.2380  0.00  0.00     0.000 O
BRANCH 59 66
ATOM     64   N  A00 X   4     162.364  37.745  51.5460  0.00  0.00     0.000 N
ATOM     66  HD  A00 X   4     161.614  37.583  51.9490  0.00  0.00     0.000 HD
ATOM     66   O  A00 X   4     164.156  37.507  53.1380  0.00  0.00     0.000 OA
ATOM     67   S  A00 X   4     163.407  36.726  52.2040  0.00  0.00     0.000 S
ATOM     68   O  A00 X   4     162.507  35.770  52.7800  0.00  0.00     0.000 OA
ATOM     69   O  A00 X   4     164.083  36.261  51.0260  0.00  0.00     0.000 OA
ENDBRANCH 59 66
BRANCH 62 70
ATOM     70   C  A00 X   4     162.303  43.416  50.4610  0.00  0.00     0.000 C
ATOM     71   O  A00 X   4     162.117  45.577  53.3600  0.00  0.00     0.000 OA
ATOM     72   O  A00 X   4     160.758  45.464  51.4410  0.00  0.00     0.000 OA
ATOM     73   O  A00 X   4     162.522  43.870  51.8070  0.00  0.00     0.000 O
ATOM     74   O  A00 X   4     160.540  43.763  53.1720  0.00  0.00     0.000 OA
ATOM     75   S  A00 X   4     161.382  44.697  52.4960  0.00  0.00     0.000 S
ENDBRANCH 62 70
ENDBRANCH 57 61
ENDBRANCH 41 57
ENDBRANCH 40 44
ENDBRANCH 20 40
ENDBRANCH 19 23
ENDBRANCH 1 19
TORSDOF 14
ENDMDL
MODEL 6
REMARK VINA RESULT:      -4.4     28.018     34.914
ROOT
ATOM      1  C1  A00 X   1     123.251  35.071  62.6180  0.00  0.00     0.000 C
ATOM      2  C2  A00 X   1     121.705  35.205  62.6530  0.00  0.00     0.000 C
ATOM      3  C3  A00 X   1     120.947  34.756  61.3610  0.00  0.00     0.000 C
ATOM      4  C4  A00 X   1     121.826  34.586  60.0950  0.00  0.00     0.000 C
ATOM      5  C5  A00 X   1     123.125  35.387  60.1820  0.00  0.00     0.000 C
ATOM      6  O5  A00 X   1     123.828  34.823  61.3120  0.00  0.00     0.000 O
ATOM      7   O  A00 X   1     119.964  35.739  61.0420  0.00  0.00     0.000 O
ATOM      9  HD  A00 X   1     120.333  35.496  60.2970  0.00  0.00     0.000 HD
ATOM      9   O  A00 X   1     122.122  33.212  59.8460  0.00  0.00     0.000 O
ATOM     11  HD  A00 X   1     122.491  32.969  59.1010  0.00  0.00     0.000 HD
ENDROOT
BRANCH 2 11
ATOM     11   O  A00 X   1     121.224  34.435  63.7710  0.00  0.00     0.000 O
ATOM     12   O  A00 X   1     118.881  34.058  64.1390  0.00  0.00     0.000 OA
ATOM     13   O  A00 X   1     119.753  36.325  64.2540  0.00  0.00     0.000 OA
ATOM     14   O  A00 X   1     120.338  34.723  65.9120  0.00  0.00     0.000 OA
ATOM     15   S  A00 X   1     119.953  34.932  64.5430  0.00  0.00     0.000 S
ENDBRANCH 2 11
BRANCH 5 16
ATOM     16   C  A00 X   1     122.945  36.906  60.2680  0.00  0.00     0.000 C
ATOM     17   O  A00 X   1     121.867  37.381  59.9750  0.00  0.00     0.000 OA
ATOM     18   O  A00 X   1     123.838  37.649  60.6240  0.00  0.00     0.000 OA
ENDBRANCH 5 16
BRANCH 1 19
ATOM     19  O4  A00 X   2     123.924  36.161  63.2950  0.00  0.00     0.000 O
BRANCH 19 23
ATOM     20  C1  A00 X   2     123.570  37.632  67.3040  0.00  0.00     0.000 C
ATOM     21  C2  A00 X   2     123.853  36.121  67.1190  0.00  0.00     0.000 C
ATOM     22  C3  A00 X   2     124.376  35.830  65.6970  0.00  0.00     0.000 C
ATOM     23  C4  A00 X   2     123.404  36.393  64.6350  0.00  0.00     0.000 C
ATOM     24  C5  A00 X   2     123.190  37.900  64.9400  0.00  0.00     0.000 C
ATOM     25  O5  A00 X   2     122.630  38.033  66.2720  0.00  0.00     0.000 O
ATOM     26   O  A00 X   2     124.688  34.430  65.5980  0.00  0.00     0.000 O
ATOM     28  HD  A00 X   2     123.921  34.185  65.9170  0.00  0.00     0.000 HD
BRANCH 21 30
ATOM     28   N  A00 X   2     124.199  36.132  68.5440  0.00  0.00     0.000 N
ATOM     30  HD  A00 X   2     123.751  35.404  68.4000  0.00  0.00     0.000 HD
ATOM     30   O  A00 X   2     123.890  33.973  69.3840  0.00  0.00     0.000 OA
ATOM     31   S  A00 X   2     123.329  35.268  69.5420  0.00  0.00     0.000 S
ATOM     32   O  A00 X   2     123.566  35.878  70.8140  0.00  0.00     0.000 OA
ATOM     33   O  A00 X   2     121.958  35.432  69.1600  0.00  0.00     0.000 OA
ENDBRANCH 21 30
BRANCH 24 34
ATOM     34   C  A00 X   2     122.440  38.753  63.8900  0.00  0.00     0.000 C
ATOM     35   O  A00 X   2     123.411  42.129  62.9310  0.00  0.00     0.000 OA
ATOM     36   O  A00 X   2     122.821  40.141  63.9740  0.00  0.00     0.000 O
ATOM     37   O  A00 X   2     124.852  40.257  62.8200  0.00  0.00     0.000 OA
ATOM     38   S  A00 X   2     123.507  40.727  62.6860  0.00  0.00     0.000 S
ATOM     39   O  A00 X   2     122.746  40.252  61.5700  0.00  0.00     0.000 OA
ENDBRANCH 24 34
BRANCH 20 40
ATOM     40  O4  A00 X   3     124.827  38.291  67.0900  0.00  0.00     0.000 O
BRANCH 40 44
ATOM     41  C1  A00 X   3     127.761  40.365  66.6330  0.00  0.00     0.000 C
ATOM     42  C2  A00 X   3     127.475  39.509  67.8860  0.00  0.00     0.000 C
ATOM     43  C3  A00 X   3     126.050  39.783  68.4310  0.00  0.00     0.000 C
ATOM     44  C4  A00 X   3     124.945  39.699  67.3860  0.00  0.00     0.000 C
ATOM     45  C5  A00 X   3     125.302  40.588  66.1610  0.00  0.00     0.000 C
ATOM     46  O5  A00 X   3     126.658  40.304  65.6870  0.00  0.00     0.000 O
ATOM     47   O  A00 X   3     125.706  39.110  69.6410  0.00  0.00     0.000 O
ATOM     49  HD  A00 X   3     124.939  39.030  69.2460  0.00  0.00     0.000 HD
BRANCH 42 49
ATOM     49   O  A00 X   3     127.636  38.127  67.5000  0.00  0.00     0.000 O
ATOM     50   O  A00 X   3     127.806  36.022  68.6270  0.00  0.00     0.000 OA
ATOM     51   O  A00 X   3     128.955  37.888  69.5150  0.00  0.00     0.000 OA
ATOM     52   O  A00 X   3     129.689  36.988  67.4570  0.00  0.00     0.000 OA
ATOM     53   S  A00 X   3     128.572  37.187  68.3140  0.00  0.00     0.000 S
ENDBRANCH 42 49
BRANCH 45 54
ATOM     54   C  A00 X   3     125.063  42.075  66.4510  0.00  0.00     0.000 C
ATOM     55   O  A00 X   3     125.253  42.911  65.5910  0.00  0.00     0.000 OA
ATOM     56   O  A00 X   3     124.679  42.444  67.5500  0.00  0.00     0.000 OA
ENDBRANCH 45 54
BRANCH 41 57
ATOM     57  O4  A00 X   4     128.160  41.709  66.9840  0.00  0.00     0.000 O
BRANCH 57 61
ATOM     58  C1  A00 X   4     130.268  44.391  64.3370  0.00  0.00     0.000 C
ATOM     59  C2  A00 X   4     129.700  43.072  63.7570  0.00  0.00     0.000 C
ATOM     60  C3  A00 X   4     128.677  42.383  64.6840  0.00  0.00     0.000 C
ATOM     61  C4  A00 X   4     129.192  42.289  66.1360  0.00  0.00     0.000 C
ATOM     62  C5  A00 X   4     129.500  43.740  66.5840  0.00  0.00     0.000 C
ATOM     63  O5  A00 X   4     130.556  44.282  65.7500  0.00  0.00     0.000 O
BRANCH 59 66
ATOM     64   N  A00 X   4     130.232  41.830  63.1670  0.00  0.00     0.000 N
ATOM     66  HD  A00 X   4     130.846  41.408  63.6090  0.00  0.00     0.000 HD
ATOM     66   O  A00 X   4     131.290  43.197  61.4920  0.00  0.00     0.000 OA
ATOM     67   S  A00 X   4     130.771  41.877  61.6620  0.00  0.00     0.000 S
ATOM     68   O  A00 X   4     131.750  40.830  61.7060  0.00  0.00     0.000 OA
ATOM     69   O  A00 X   4     129.572  41.532  60.9530  0.00  0.00     0.000 OA
ENDBRANCH 59 66
BRANCH 62 70
ATOM     70   C  A00 X   4     129.929  43.867  68.0650  0.00  0.00     0.000 C
ATOM     71   O  A00 X   4     128.332  45.724  70.7310  0.00  0.00     0.000 OA
ATOM     72   O  A00 X   4     130.582  45.661  70.0400  0.00  0.00     0.000 OA
ATOM     73   O  A00 X   4     128.874  44.493  68.8130  0.00  0.00     0.000 O
ATOM     74   O  A00 X   4     128.951  46.899  68.7180  0.00  0.00     0.000 OA
ATOM     75   S  A00 X   4     129.212  45.807  69.5990  0.00  0.00     0.000 S
ENDBRANCH 62 70
ENDBRANCH 57 61
ENDBRANCH 41 57
ENDBRANCH 40 44
ENDBRANCH 20 40
ENDBRANCH 19 23
ENDBRANCH 1 19
TORSDOF 14
ENDMDL
MODEL 7
REMARK VINA RESULT:      -4.2     27.246     33.643
ROOT
ATOM      1  C1  A00 X   1     123.931  36.529  65.1910  0.00  0.00     0.000 C
ATOM      2  C2  A00 X   1     122.385  36.662  65.2300  0.00  0.00     0.000 C
ATOM      3  C3  A00 X   1     121.576  35.360  64.9190  0.00  0.00     0.000 C
ATOM      4  C4  A00 X   1     122.383  34.212  64.2600  0.00  0.00     0.000 C
ATOM      5  C5  A00 X   1     123.637  34.723  63.5490  0.00  0.00     0.000 C
ATOM      6  O5  A00 X   1     124.440  35.309  64.5970  0.00  0.00     0.000 O
ATOM      7   O  A00 X   1     120.520  35.682  64.0170  0.00  0.00     0.000 O
ATOM      9  HD  A00 X   1     120.856  34.927  63.7580  0.00  0.00     0.000 HD
ATOM      9   O  A00 X   1     122.743  33.212  65.2130  0.00  0.00     0.000 O
ATOM     11  HD  A00 X   1     123.079  32.457  64.9540  0.00  0.00     0.000 HD
ENDROOT
BRANCH 2 11
ATOM     11   O  A00 X   1     122.019  37.140  66.5390  0.00  0.00     0.000 O
ATOM     12   O  A00 X   1     119.767  36.995  67.3610  0.00  0.00     0.000 OA
ATOM     13   O  A00 X   1     120.240  38.390  65.4250  0.00  0.00     0.000 OA
ATOM     14   O  A00 X   1     121.055  38.997  67.5760  0.00  0.00     0.000 OA
ATOM     15   S  A00 X   1     120.667  37.914  66.7120  0.00  0.00     0.000 S
ENDBRANCH 2 11
BRANCH 5 16
ATOM     16   C  A00 X   1     123.374  35.671  62.3740  0.00  0.00     0.000 C
ATOM     17   O  A00 X   1     124.306  36.299  61.9150  0.00  0.00     0.000 OA
ATOM     18   O  A00 X   1     122.272  35.810  61.8830  0.00  0.00     0.000 OA
ENDBRANCH 5 16
BRANCH 1 19
ATOM     19  O4  A00 X   2     124.580  37.699  64.6340  0.00  0.00     0.000 O
BRANCH 19 23
ATOM     20  C1  A00 X   2     125.154  41.642  66.2110  0.00  0.00     0.000 C
ATOM     21  C2  A00 X   2     125.740  40.458  67.0180  0.00  0.00     0.000 C
ATOM     22  C3  A00 X   2     125.840  39.192  66.1410  0.00  0.00     0.000 C
ATOM     23  C4  A00 X   2     124.472  38.864  65.5010  0.00  0.00     0.000 C
ATOM     24  C5  A00 X   2     123.987  40.129  64.7420  0.00  0.00     0.000 C
ATOM     25  O5  A00 X   2     123.865  41.223  65.6880  0.00  0.00     0.000 O
ATOM     26   O  A00 X   2     126.452  38.144  66.9120  0.00  0.00     0.000 O
ATOM     28  HD  A00 X   2     125.915  38.255  67.5820  0.00  0.00     0.000 HD
BRANCH 21 30
ATOM     28   N  A00 X   2     125.727  41.449  68.0980  0.00  0.00     0.000 N
ATOM     30  HD  A00 X   2     126.020  40.709  68.4400  0.00  0.00     0.000 HD
ATOM     30   O  A00 X   2     127.042  40.634  69.8480  0.00  0.00     0.000 OA
ATOM     31   S  A00 X   2     125.679  40.940  69.5940  0.00  0.00     0.000 S
ATOM     32   O  A00 X   2     125.167  42.062  70.3170  0.00  0.00     0.000 OA
ATOM     33   O  A00 X   2     124.749  39.851  69.6410  0.00  0.00     0.000 OA
ENDBRANCH 21 30
BRANCH 24 34
ATOM     34   C  A00 X   2     122.751  39.995  63.8230  0.00  0.00     0.000 C
ATOM     35   O  A00 X   2     122.662  41.085  60.3500  0.00  0.00     0.000 OA
ATOM     36   O  A00 X   2     122.884  40.815  62.6450  0.00  0.00     0.000 O
ATOM     37   O  A00 X   2     124.253  39.566  61.2180  0.00  0.00     0.000 OA
ATOM     38   S  A00 X   2     122.901  40.032  61.2810  0.00  0.00     0.000 S
ATOM     39   O  A00 X   2     121.864  39.049  61.3650  0.00  0.00     0.000 OA
ENDBRANCH 24 34
BRANCH 20 40
ATOM     40  O4  A00 X   3     126.065  41.860  65.1240  0.00  0.00     0.000 O
BRANCH 40 44
ATOM     41  C1  A00 X   3     128.399  43.490  62.8840  0.00  0.00     0.000 C
ATOM     42  C2  A00 X   3     128.093  43.952  64.3250  0.00  0.00     0.000 C
ATOM     43  C3  A00 X   3     126.566  44.083  64.5540  0.00  0.00     0.000 C
ATOM     44  C4  A00 X   3     125.755  42.863  64.1340  0.00  0.00     0.000 C
ATOM     45  C5  A00 X   3     126.114  42.464  62.6750  0.00  0.00     0.000 C
ATOM     46  O5  A00 X   3     127.564  42.362  62.5020  0.00  0.00     0.000 O
ATOM     47   O  A00 X   3     126.167  44.588  65.8270  0.00  0.00     0.000 O
ATOM     49  HD  A00 X   3     125.544  43.993  65.7420  0.00  0.00     0.000 HD
BRANCH 42 49
ATOM     49   O  A00 X   3     128.679  42.977  65.2150  0.00  0.00     0.000 O
ATOM     50   O  A00 X   3     128.695  42.574  67.5750  0.00  0.00     0.000 OA
ATOM     51   O  A00 X   3     128.906  44.796  66.7950  0.00  0.00     0.000 OA
ATOM     52   O  A00 X   3     130.683  43.288  66.3990  0.00  0.00     0.000 OA
ATOM     53   S  A00 X   3     129.279  43.420  66.5820  0.00  0.00     0.000 S
ENDBRANCH 42 49
BRANCH 45 54
ATOM     54   C  A00 X   3     125.448  43.392  61.6520  0.00  0.00     0.000 C
ATOM     55   O  A00 X   3     125.331  43.053  60.4920  0.00  0.00     0.000 OA
ATOM     56   O  A00 X   3     125.026  44.489  61.9850  0.00  0.00     0.000 OA
ENDBRANCH 45 54
BRANCH 41 57
ATOM     57  O4  A00 X   4     128.359  44.592  61.9500  0.00  0.00     0.000 O
BRANCH 57 61
ATOM     58  C1  A00 X   4     129.826  44.901  57.9010  0.00  0.00     0.000 C
ATOM     59  C2  A00 X   4     128.295  44.850  58.1340  0.00  0.00     0.000 C
ATOM     60  C3  A00 X   4     127.887  45.103  59.5990  0.00  0.00     0.000 C
ATOM     61  C4  A00 X   4     128.725  44.256  60.5820  0.00  0.00     0.000 C
ATOM     62  C5  A00 X   4     130.207  44.622  60.3170  0.00  0.00     0.000 C
ATOM     63  O5  A00 X   4     130.557  44.243  58.9610  0.00  0.00     0.000 O
BRANCH 59 66
ATOM     64   N  A00 X   4     127.107  45.413  57.4670  0.00  0.00     0.000 N
ATOM     66  HD  A00 X   4     126.331  45.129  57.7250  0.00  0.00     0.000 HD
ATOM     66   O  A00 X   4     127.758  44.192  55.4960  0.00  0.00     0.000 OA
ATOM     67   S  A00 X   4     127.046  45.374  55.8690  0.00  0.00     0.000 S
ATOM     68   O  A00 X   4     125.627  45.329  55.6660  0.00  0.00     0.000 OA
ATOM     69   O  A00 X   4     127.644  46.641  55.5610  0.00  0.00     0.000 OA
ENDBRANCH 59 66
BRANCH 62 70
ATOM     70   C  A00 X   4     131.206  43.950  61.2890  0.00  0.00     0.000 C
ATOM     71   O  A00 X   4     132.602  40.612  61.1480  0.00  0.00     0.000 OA
ATOM     72   O  A00 X   4     131.590  41.778  62.9260  0.00  0.00     0.000 OA
ATOM     73   O  A00 X   4     131.673  42.719  60.7140  0.00  0.00     0.000 O
ATOM     74   O  A00 X   4     130.203  40.860  61.1450  0.00  0.00     0.000 OA
ATOM     75   S  A00 X   4     131.465  41.400  61.5360  0.00  0.00     0.000 S
ENDBRANCH 62 70
ENDBRANCH 57 61
ENDBRANCH 41 57
ENDBRANCH 40 44
ENDBRANCH 20 40
ENDBRANCH 19 23
ENDBRANCH 1 19
TORSDOF 14
ENDMDL
MODEL 8
REMARK VINA RESULT:      -4.0     34.732     40.855
ROOT
ATOM      1  C1  A00 X   1     116.788  30.400  59.0200  0.00  0.00     0.000 C
ATOM      2  C2  A00 X   1     117.639  29.104  59.0810  0.00  0.00     0.000 C
ATOM      3  C3  A00 X   1     116.898  27.817  59.5700  0.00  0.00     0.000 C
ATOM      4  C4  A00 X   1     115.537  28.056  60.2740  0.00  0.00     0.000 C
ATOM      5  C5  A00 X   1     115.422  29.471  60.8420  0.00  0.00     0.000 C
ATOM      6  O5  A00 X   1     115.503  30.337  59.6870  0.00  0.00     0.000 O
ATOM      7   O  A00 X   1     117.728  27.141  60.5120  0.00  0.00     0.000 O
ATOM      9  HD  A00 X   1     116.918  27.108  60.8160  0.00  0.00     0.000 HD
ATOM      9   O  A00 X   1     114.443  27.798  59.3960  0.00  0.00     0.000 O
ATOM     11  HD  A00 X   1     113.632  27.765  59.7000  0.00  0.00     0.000 HD
ENDROOT
BRANCH 2 11
ATOM     11   O  A00 X   1     118.171  28.867  57.7620  0.00  0.00     0.000 O
ATOM     12   O  A00 X   1     119.253  26.804  57.1820  0.00  0.00     0.000 OA
ATOM     13   O  A00 X   1     120.253  28.238  58.8730  0.00  0.00     0.000 OA
ATOM     14   O  A00 X   1     120.193  28.922  56.5960  0.00  0.00     0.000 OA
ATOM     15   S  A00 X   1     119.554  28.143  57.6220  0.00  0.00     0.000 S
ENDBRANCH 2 11
BRANCH 5 16
ATOM     16   C  A00 X   1     116.436  29.814  61.9380  0.00  0.00     0.000 C
ATOM     17   O  A00 X   1     116.557  30.974  62.2750  0.00  0.00     0.000 OA
ATOM     18   O  A00 X   1     117.116  28.969  62.4850  0.00  0.00     0.000 OA
ENDBRANCH 5 16
BRANCH 1 19
ATOM     19  O4  A00 X   2     117.531  31.579  59.4160  0.00  0.00     0.000 O
BRANCH 19 23
ATOM     20  C1  A00 X   2     121.415  32.939  58.2210  0.00  0.00     0.000 C
ATOM     21  C2  A00 X   2     120.462  32.433  57.1110  0.00  0.00     0.000 C
ATOM     22  C3  A00 X   2     119.004  32.396  57.6130  0.00  0.00     0.000 C
ATOM     23  C4  A00 X   2     118.899  31.571  58.9160  0.00  0.00     0.000 C
ATOM     24  C5  A00 X   2     119.910  32.163  59.9360  0.00  0.00     0.000 C
ATOM     25  O5  A00 X   2     121.246  32.073  59.3750  0.00  0.00     0.000 O
ATOM     26   O  A00 X   2     118.153  31.987  56.5290  0.00  0.00     0.000 O
ATOM     28  HD  A00 X   2     118.642  31.298  56.3390  0.00  0.00     0.000 HD
BRANCH 21 30
ATOM     28   N  A00 X   2     119.856  32.828  55.8360  0.00  0.00     0.000 N
ATOM     30  HD  A00 X   2     120.672  32.594  55.6640  0.00  0.00     0.000 HD
ATOM     30   O  A00 X   2     121.204  32.020  54.1080  0.00  0.00     0.000 OA
ATOM     31   S  A00 X   2     120.803  33.269  54.6500  0.00  0.00     0.000 S
ATOM     32   O  A00 X   2     119.949  34.047  53.8060  0.00  0.00     0.000 OA
ATOM     33   O  A00 X   2     121.831  34.093  55.2120  0.00  0.00     0.000 OA
ENDBRANCH 21 30
BRANCH 24 34
ATOM     34   C  A00 X   2     119.842  31.665  61.3980  0.00  0.00     0.000 C
ATOM     35   O  A00 X   2     120.713  28.289  62.4470  0.00  0.00     0.000 OA
ATOM     36   O  A00 X   2     119.896  30.226  61.4630  0.00  0.00     0.000 O
ATOM     37   O  A00 X   2     122.169  29.719  61.2510  0.00  0.00     0.000 OA
ATOM     38   S  A00 X   2     121.133  29.635  62.2340  0.00  0.00     0.000 S
ATOM     39   O  A00 X   2     121.281  30.419  63.4230  0.00  0.00     0.000 OA
ENDBRANCH 24 34
BRANCH 20 40
ATOM     40  O4  A00 X   3     120.965  34.263  58.5440  0.00  0.00     0.000 O
BRANCH 40 44
ATOM     41  C1  A00 X   3     120.813  35.805  61.8190  0.00  0.00     0.000 C
ATOM     42  C2  A00 X   3     120.091  36.336  60.5620  0.00  0.00     0.000 C
ATOM     43  C3  A00 X   3     121.073  36.460  59.3690  0.00  0.00     0.000 C
ATOM     44  C4  A00 X   3     121.902  35.212  59.0980  0.00  0.00     0.000 C
ATOM     45  C5  A00 X   3     122.600  34.743  60.4060  0.00  0.00     0.000 C
ATOM     46  O5  A00 X   3     121.638  34.649  61.5070  0.00  0.00     0.000 O
ATOM     47   O  A00 X   3     120.534  37.024  58.1750  0.00  0.00     0.000 O
ATOM     49  HD  A00 X   3     121.027  36.419  57.8000  0.00  0.00     0.000 HD
BRANCH 42 49
ATOM     49   O  A00 X   3     119.018  35.414  60.2690  0.00  0.00     0.000 O
ATOM     50   O  A00 X   3     117.340  35.189  58.5760  0.00  0.00     0.000 OA
ATOM     51   O  A00 X   3     117.808  37.339  59.4420  0.00  0.00     0.000 OA
ATOM     52   O  A00 X   3     116.771  35.756  60.8570  0.00  0.00     0.000 OA
ATOM     53   S  A00 X   3     117.647  35.941  59.7520  0.00  0.00     0.000 S
ENDBRANCH 42 49
BRANCH 45 54
ATOM     54   C  A00 X   3     123.819  35.610  60.7420  0.00  0.00     0.000 C
ATOM     55   O  A00 X   3     124.268  36.389  59.9260  0.00  0.00     0.000 OA
ATOM     56   O  A00 X   3     124.360  35.533  61.8340  0.00  0.00     0.000 OA
ENDBRANCH 45 54
BRANCH 41 57
ATOM     57  O4  A00 X   4     121.516  36.858  62.5160  0.00  0.00     0.000 O
BRANCH 57 61
ATOM     58  C1  A00 X   4     121.827  37.493  66.7750  0.00  0.00     0.000 C
ATOM     59  C2  A00 X   4     123.130  37.333  65.9520  0.00  0.00     0.000 C
ATOM     60  C3  A00 X   4     122.917  37.474  64.4310  0.00  0.00     0.000 C
ATOM     61  C4  A00 X   4     121.725  36.626  63.9380  0.00  0.00     0.000 C
ATOM     62  C5  A00 X   4     120.491  37.098  64.7450  0.00  0.00     0.000 C
ATOM     63  O5  A00 X   4     120.708  36.822  66.1530  0.00  0.00     0.000 O
BRANCH 59 66
ATOM     64   N  A00 X   4     124.404  36.606  65.8080  0.00  0.00     0.000 N
ATOM     66  HD  A00 X   4     124.364  35.766  65.6000  0.00  0.00     0.000 HD
ATOM     66   O  A00 X   4     124.667  36.797  68.1940  0.00  0.00     0.000 OA
ATOM     67   S  A00 X   4     125.458  36.680  67.0090  0.00  0.00     0.000 S
ATOM     68   O  A00 X   4     126.132  35.426  66.8380  0.00  0.00     0.000 OA
ATOM     69   O  A00 X   4     126.227  37.821  66.6010  0.00  0.00     0.000 OA
ENDBRANCH 59 66
BRANCH 62 70
ATOM     70   C  A00 X   4     119.161  36.435  64.3130  0.00  0.00     0.000 C
ATOM     71   O  A00 X   4     117.712  33.320  65.4560  0.00  0.00     0.000 OA
ATOM     72   O  A00 X   4     118.060  34.142  63.2770  0.00  0.00     0.000 OA
ATOM     73   O  A00 X   4     118.866  35.343  65.1990  0.00  0.00     0.000 O
ATOM     74   O  A00 X   4     119.949  33.289  64.5570  0.00  0.00     0.000 OA
ATOM     75   S  A00 X   4     118.669  33.920  64.5690  0.00  0.00     0.000 S
ENDBRANCH 62 70
ENDBRANCH 57 61
ENDBRANCH 41 57
ENDBRANCH 40 44
ENDBRANCH 20 40
ENDBRANCH 19 23
ENDBRANCH 1 19
TORSDOF 14
ENDMDL
MODEL 9
REMARK VINA RESULT:      -3.6     35.247     40.801
ROOT
ATOM      1  C1  A00 X   1     116.427  30.884  60.2420  0.00  0.00     0.000 C
ATOM      2  C2  A00 X   1     117.208  29.543  60.2940  0.00  0.00     0.000 C
ATOM      3  C3  A00 X   1     116.460  28.338  60.9530  0.00  0.00     0.000 C
ATOM      4  C4  A00 X   1     115.207  28.705  61.7900  0.00  0.00     0.000 C
ATOM      5  C5  A00 X   1     115.237  30.157  62.2670  0.00  0.00     0.000 C
ATOM      6  O5  A00 X   1     115.228  30.942  61.0540  0.00  0.00     0.000 O
ATOM      7   O  A00 X   1     117.357  27.672  61.8390  0.00  0.00     0.000 O
ATOM      9  HD  A00 X   1     116.588  27.709  62.2350  0.00  0.00     0.000 HD
ATOM      9   O  A00 X   1     114.004  28.461  61.0620  0.00  0.00     0.000 O
ATOM     11  HD  A00 X   1     113.234  28.498  61.4580  0.00  0.00     0.000 HD
ENDROOT
BRANCH 2 11
ATOM     11   O  A00 X   1     117.566  29.191  58.9440  0.00  0.00     0.000 O
ATOM     12   O  A00 X   1     118.457  27.032  58.3880  0.00  0.00     0.000 OA
ATOM     13   O  A00 X   1     119.727  28.503  59.8500  0.00  0.00     0.000 OA
ATOM     14   O  A00 X   1     119.436  29.047  57.5530  0.00  0.00     0.000 OA
ATOM     15   S  A00 X   1     118.881  28.374  58.6960  0.00  0.00     0.000 S
ENDBRANCH 2 11
BRANCH 5 16
ATOM     16   C  A00 X   1     116.390  30.504  63.2140  0.00  0.00     0.000 C
ATOM     17   O  A00 X   1     117.018  29.597  63.7220  0.00  0.00     0.000 OA
ATOM     18   O  A00 X   1     116.702  31.650  63.4690  0.00  0.00     0.000 OA
ENDBRANCH 5 16
BRANCH 1 19
ATOM     19  O4  A00 X   2     117.275  32.036  60.4680  0.00  0.00     0.000 O
BRANCH 19 23
ATOM     20  C1  A00 X   2     121.052  33.088  58.7380  0.00  0.00     0.000 C
ATOM     21  C2  A00 X   2     119.940  32.597  57.7800  0.00  0.00     0.000 C
ATOM     22  C3  A00 X   2     118.556  32.676  58.4590  0.00  0.00     0.000 C
ATOM     23  C4  A00 X   2     118.567  31.918  59.8050  0.00  0.00     0.000 C
ATOM     24  C5  A00 X   2     119.731  32.487  60.6610  0.00  0.00     0.000 C
ATOM     25  O5  A00 X   2     120.978  32.286  59.9470  0.00  0.00     0.000 O
ATOM     26   O  A00 X   2     117.553  32.276  57.5090  0.00  0.00     0.000 O
ATOM     28  HD  A00 X   2     117.973  31.549  57.2960  0.00  0.00     0.000 HD
BRANCH 21 30
ATOM     28   N  A00 X   2     119.215  32.993  56.5680  0.00  0.00     0.000 N
ATOM     30  HD  A00 X   2     119.983  32.683  56.3120  0.00  0.00     0.000 HD
ATOM     30   O  A00 X   2     120.273  32.005  54.7340  0.00  0.00     0.000 OA
ATOM     31   S  A00 X   2     120.043  33.305  55.2580  0.00  0.00     0.000 S
ATOM     32   O  A00 X   2     119.158  34.120  54.4850  0.00  0.00     0.000 OA
ATOM     33   O  A00 X   2     121.195  34.059  55.6540  0.00  0.00     0.000 OA
ENDBRANCH 21 30
BRANCH 24 34
ATOM     34   C  A00 X   2     119.817  32.059  62.1450  0.00  0.00     0.000 C
ATOM     35   O  A00 X   2     120.687  28.700  63.2520  0.00  0.00     0.000 OA
ATOM     36   O  A00 X   2     119.828  30.623  62.2750  0.00  0.00     0.000 O
ATOM     37   O  A00 X   2     122.042  30.014  61.8270  0.00  0.00     0.000 OA
ATOM     38   S  A00 X   2     121.125  30.018  62.9260  0.00  0.00     0.000 S
ATOM     39   O  A00 X   2     121.440  30.848  64.0490  0.00  0.00     0.000 OA
ENDBRANCH 24 34
BRANCH 20 40
ATOM     40  O4  A00 X   3     120.725  34.451  59.0450  0.00  0.00     0.000 O
BRANCH 40 44
ATOM     41  C1  A00 X   3     121.068  36.327  62.1260  0.00  0.00     0.000 C
ATOM     42  C2  A00 X   3     120.240  36.783  60.9050  0.00  0.00     0.000 C
ATOM     43  C3  A00 X   3     121.080  36.705  59.6040  0.00  0.00     0.000 C
ATOM     44  C4  A00 X   3     121.784  35.372  59.3840  0.00  0.00     0.000 C
ATOM     45  C5  A00 X   3     122.598  34.984  60.6500  0.00  0.00     0.000 C
ATOM     46  O5  A00 X   3     121.770  35.082  61.8540  0.00  0.00     0.000 O
ATOM     47   O  A00 X   3     120.444  37.186  58.4220  0.00  0.00     0.000 O
ATOM     49  HD  A00 X   3     120.846  36.507  58.0640  0.00  0.00     0.000 HD
BRANCH 42 49
ATOM     49   O  A00 X   3     119.080  35.926  60.8360  0.00  0.00     0.000 O
ATOM     50   O  A00 X   3     117.158  35.722  59.4240  0.00  0.00     0.000 OA
ATOM     51   O  A00 X   3     117.884  37.881  60.0580  0.00  0.00     0.000 OA
ATOM     52   O  A00 X   3     116.972  36.467  61.7170  0.00  0.00     0.000 OA
ATOM     53   S  A00 X   3     117.684  36.519  60.4870  0.00  0.00     0.000 S
ENDBRANCH 42 49
BRANCH 45 54
ATOM     54   C  A00 X   3     123.905  35.780  60.7510  0.00  0.00     0.000 C
ATOM     55   O  A00 X   3     124.226  36.557  59.8740  0.00  0.00     0.000 OA
ATOM     56   O  A00 X   3     124.646  35.647  61.7120  0.00  0.00     0.000 OA
ENDBRANCH 45 54
BRANCH 41 57
ATOM     57  O4  A00 X   4     121.920  37.385  62.6190  0.00  0.00     0.000 O
BRANCH 57 61
ATOM     58  C1  A00 X   4     123.443  38.372  66.5360  0.00  0.00     0.000 C
ATOM     59  C2  A00 X   4     124.094  37.198  65.7620  0.00  0.00     0.000 C
ATOM     60  C3  A00 X   4     123.724  37.170  64.2650  0.00  0.00     0.000 C
ATOM     61  C4  A00 X   4     122.205  37.334  64.0460  0.00  0.00     0.000 C
ATOM     62  C5  A00 X   4     121.810  38.672  64.7190  0.00  0.00     0.000 C
ATOM     63  O5  A00 X   4     122.068  38.583  66.1440  0.00  0.00     0.000 O
BRANCH 59 66
ATOM     64   N  A00 X   4     123.896  35.779  66.1050  0.00  0.00     0.000 N
ATOM     66  HD  A00 X   4     123.109  35.539  66.3750  0.00  0.00     0.000 HD
ATOM     66   O  A00 X   4     125.289  36.154  68.0330  0.00  0.00     0.000 OA
ATOM     67   S  A00 X   4     124.907  35.102  67.1430  0.00  0.00     0.000 S
ATOM     68   O  A00 X   4     124.060  34.092  67.7080  0.00  0.00     0.000 OA
ATOM     69   O  A00 X   4     125.900  34.598  66.2370  0.00  0.00     0.000 OA
ENDBRANCH 59 66
BRANCH 62 70
ATOM     70   C  A00 X   4     120.329  39.071  64.5120  0.00  0.00     0.000 C
ATOM     71   O  A00 X   4     118.682  42.177  65.3740  0.00  0.00     0.000 OA
ATOM     72   O  A00 X   4     118.066  39.945  65.7990  0.00  0.00     0.000 OA
ATOM     73   O  A00 X   4     120.175  40.476  64.7720  0.00  0.00     0.000 O
ATOM     74   O  A00 X   4     119.847  40.971  67.1070  0.00  0.00     0.000 OA
ATOM     75   S  A00 X   4     119.141  40.909  65.8680  0.00  0.00     0.000 S
ENDBRANCH 62 70
ENDBRANCH 57 61
ENDBRANCH 41 57
ENDBRANCH 40 44
ENDBRANCH 20 40
ENDBRANCH 19 23
ENDBRANCH 1 19
TORSDOF 14
ENDMDL
MODEL 10
REMARK VINA RESULT:      -3.5      6.539     12.653
ROOT
ATOM      1  C1  A00 X   1     154.223  43.716  54.5900  0.00  0.00     0.000 C
ATOM      2  C2  A00 X   1     153.498  43.892  55.9500  0.00  0.00     0.000 C
ATOM      3  C3  A00 X   1     154.407  44.240  57.1750  0.00  0.00     0.000 C
ATOM      4  C4  A00 X   1     155.926  44.007  56.9670  0.00  0.00     0.000 C
ATOM      5  C5  A00 X   1     156.208  42.999  55.8530  0.00  0.00     0.000 C
ATOM      6  O5  A00 X   1     155.667  43.609  54.6600  0.00  0.00     0.000 O
ATOM      7   O  A00 X   1     154.020  43.425  58.2790  0.00  0.00     0.000 O
ATOM      9  HD  A00 X   1     154.885  43.454  58.2740  0.00  0.00     0.000 HD
ATOM      9   O  A00 X   1     156.609  45.230  56.6950  0.00  0.00     0.000 O
ATOM     11  HD  A00 X   1     157.475  45.259  56.6900  0.00  0.00     0.000 HD
ENDROOT
BRANCH 2 11
ATOM     11   O  A00 X   1     152.510  44.929  55.7900  0.00  0.00     0.000 O
ATOM     12   O  A00 X   1     151.299  45.830  57.6570  0.00  0.00     0.000 OA
ATOM     13   O  A00 X   1     151.002  43.490  57.0630  0.00  0.00     0.000 OA
ATOM     14   O  A00 X   1     150.198  45.209  55.6290  0.00  0.00     0.000 OA
ATOM     15   S  A00 X   1     151.180  44.843  56.6140  0.00  0.00     0.000 S
ENDBRANCH 2 11
BRANCH 5 16
ATOM     16   C  A00 X   1     155.680  41.584  56.1110  0.00  0.00     0.000 C
ATOM     17   O  A00 X   1     155.397  41.267  57.2480  0.00  0.00     0.000 OA
ATOM     18   O  A00 X   1     155.528  40.772  55.2190  0.00  0.00     0.000 OA
ENDBRANCH 5 16
BRANCH 1 19
ATOM     19  O4  A00 X   2     153.654  42.656  53.7830  0.00  0.00     0.000 O
BRANCH 19 23
ATOM     20  C1  A00 X   2     154.772  44.093  49.9040  0.00  0.00     0.000 C
ATOM     21  C2  A00 X   2     153.708  44.900  50.6850  0.00  0.00     0.000 C
ATOM     22  C3  A00 X   2     153.730  44.533  52.1830  0.00  0.00     0.000 C
ATOM     23  C4  A00 X   2     153.582  43.006  52.3710  0.00  0.00     0.000 C
ATOM     24  C5  A00 X   2     154.689  42.315  51.5280  0.00  0.00     0.000 C
ATOM     25  O5  A00 X   2     154.513  42.683  50.1350  0.00  0.00     0.000 O
ATOM     26   O  A00 X   2     152.775  45.356  52.8740  0.00  0.00     0.000 O
ATOM     28  HD  A00 X   2     152.138  45.173  52.3160  0.00  0.00     0.000 HD
BRANCH 21 30
ATOM     28   N  A00 X   2     153.051  45.204  49.4090  0.00  0.00     0.000 N
ATOM     30  HD  A00 X   2     152.734  45.759  49.9930  0.00  0.00     0.000 HD
ATOM     30   O  A00 X   2     152.065  47.314  49.5830  0.00  0.00     0.000 OA
ATOM     31   S  A00 X   2     151.664  45.960  49.4310  0.00  0.00     0.000 S
ATOM     32   O  A00 X   2     151.084  45.640  48.1640  0.00  0.00     0.000 OA
ATOM     33   O  A00 X   2     150.887  45.391  50.4920  0.00  0.00     0.000 OA
ENDBRANCH 21 30
BRANCH 24 34
ATOM     34   C  A00 X   2     154.906  40.796  51.7220  0.00  0.00     0.000 C
ATOM     35   O  A00 X   2     152.242  38.434  52.4840  0.00  0.00     0.000 OA
ATOM     36   O  A00 X   2     153.765  40.181  52.3520  0.00  0.00     0.000 O
ATOM     37   O  A00 X   2     152.231  39.879  50.6130  0.00  0.00     0.000 OA
ATOM     38   S  A00 X   2     153.033  39.086  51.4930  0.00  0.00     0.000 S
ATOM     39   O  A00 X   2     154.059  38.277  50.9070  0.00  0.00     0.000 OA
ENDBRANCH 24 34
BRANCH 20 40
ATOM     40  O4  A00 X   3     156.034  44.450  50.4860  0.00  0.00     0.000 O
BRANCH 40 44
ATOM     41  C1  A00 X   3     159.272  43.596  51.8670  0.00  0.00     0.000 C
ATOM     42  C2  A00 X   3     158.746  45.036  51.6830  0.00  0.00     0.000 C
ATOM     43  C3  A00 X   3     158.227  45.257  50.2380  0.00  0.00     0.000 C
ATOM     44  C4  A00 X   3     157.249  44.196  49.7480  0.00  0.00     0.000 C
ATOM     45  C5  A00 X   3     157.851  42.778  49.9630  0.00  0.00     0.000 C
ATOM     46  O5  A00 X   3     158.337  42.619  51.3350  0.00  0.00     0.000 O
ATOM     47   O  A00 X   3     157.796  46.580  49.9270  0.00  0.00     0.000 O
ATOM     49  HD  A00 X   3     157.179  46.155  49.4910  0.00  0.00     0.000 HD
BRANCH 42 49
ATOM     49   O  A00 X   3     157.698  45.232  52.6560  0.00  0.00     0.000 O
ATOM     50   O  A00 X   3     156.125  46.957  53.1860  0.00  0.00     0.000 OA
ATOM     51   O  A00 X   3     158.345  47.564  52.6450  0.00  0.00     0.000 OA
ATOM     52   O  A00 X   3     157.954  46.411  54.6710  0.00  0.00     0.000 OA
ATOM     53   S  A00 X   3     157.505  46.618  53.3370  0.00  0.00     0.000 S
ENDBRANCH 42 49
BRANCH 45 54
ATOM     54   C  A00 X   3     158.909  42.445  48.9050  0.00  0.00     0.000 C
ATOM     55   O  A00 X   3     159.245  41.295  48.7060  0.00  0.00     0.000 OA
ATOM     56   O  A00 X   3     159.434  43.329  48.2450  0.00  0.00     0.000 OA
ENDBRANCH 45 54
BRANCH 41 57
ATOM     57  O4  A00 X   4     160.621  43.452  51.3670  0.00  0.00     0.000 O
BRANCH 57 61
ATOM     58  C1  A00 X   4     163.845  40.743  52.3150  0.00  0.00     0.000 C
ATOM     59  C2  A00 X   4     162.566  40.170  51.6560  0.00  0.00     0.000 C
ATOM     60  C3  A00 X   4     161.653  41.252  51.0430  0.00  0.00     0.000 C
ATOM     61  C4  A00 X   4     161.416  42.423  52.0210  0.00  0.00     0.000 C
ATOM     62  C5  A00 X   4     162.816  42.978  52.3850  0.00  0.00     0.000 C
ATOM     63  O5  A00 X   4     163.574  41.947  53.0680  0.00  0.00     0.000 O
BRANCH 59 66
ATOM     64   N  A00 X   4     161.545  39.117  51.5080  0.00  0.00     0.000 N
ATOM     66  HD  A00 X   4     160.867  39.139  52.0460  0.00  0.00     0.000 HD
ATOM     66   O  A00 X   4     163.167  37.565  52.3810  0.00  0.00     0.000 OA
ATOM     67   S  A00 X   4     162.025  37.591  51.5210  0.00  0.00     0.000 S
ATOM     68   O  A00 X   4     160.849  36.954  52.0370  0.00  0.00     0.000 OA
ATOM     69   O  A00 X   4     162.239  37.381  50.1170  0.00  0.00     0.000 OA
ENDBRANCH 59 66
BRANCH 62 70
ATOM     70   C  A00 X   4     162.783  44.239  53.2810  0.00  0.00     0.000 C
ATOM     71   O  A00 X   4     161.599  44.564  56.6870  0.00  0.00     0.000 OA
ATOM     72   O  A00 X   4     161.141  45.857  54.7730  0.00  0.00     0.000 OA
ATOM     73   O  A00 X   4     162.467  43.856  54.6290  0.00  0.00     0.000 O
ATOM     74   O  A00 X   4     160.098  43.670  55.0250  0.00  0.00     0.000 OA
ATOM     75   S  A00 X   4     161.214  44.514  55.3040  0.00  0.00     0.000 S
ENDBRANCH 62 70
ENDBRANCH 57 61
ENDBRANCH 41 57
ENDBRANCH 40 44
ENDBRANCH 20 40
ENDBRANCH 19 23
ENDBRANCH 1 19
TORSDOF 14
ENDMDL
MODEL 11
REMARK VINA RESULT:      -3.2      7.221     12.690
ROOT
ATOM      1  C1  A00 X   1     153.373  44.435  55.3220  0.00  0.00     0.000 C
ATOM      2  C2  A00 X   1     153.727  44.229  56.8190  0.00  0.00     0.000 C
ATOM      3  C3  A00 X   1     155.241  44.002  57.1430  0.00  0.00     0.000 C
ATOM      4  C4  A00 X   1     156.138  43.647  55.9290  0.00  0.00     0.000 C
ATOM      5  C5  A00 X   1     155.334  43.058  54.7700  0.00  0.00     0.000 C
ATOM      6  O5  A00 X   1     154.426  44.112  54.3800  0.00  0.00     0.000 O
ATOM      7   O  A00 X   1     155.355  42.918  58.0610  0.00  0.00     0.000 O
ATOM      9  HD  A00 X   1     155.989  42.826  57.4790  0.00  0.00     0.000 HD
ATOM      9   O  A00 X   1     156.876  44.781  55.4760  0.00  0.00     0.000 O
ATOM     11  HD  A00 X   1     157.510  44.690  54.8940  0.00  0.00     0.000 HD
ENDROOT
BRANCH 2 11
ATOM     11   O  A00 X   1     153.260  45.384  57.5430  0.00  0.00     0.000 O
ATOM     12   O  A00 X   1     152.570  45.249  59.8400  0.00  0.00     0.000 OA
ATOM     13   O  A00 X   1     151.312  44.039  58.1460  0.00  0.00     0.000 OA
ATOM     14   O  A00 X   1     151.273  46.416  58.2050  0.00  0.00     0.000 OA
ATOM     15   S  A00 X   1     152.030  45.230  58.5030  0.00  0.00     0.000 S
ENDBRANCH 2 11
BRANCH 5 16
ATOM     16   C  A00 X   1     154.636  41.729  55.0760  0.00  0.00     0.000 C
ATOM     17   O  A00 X   1     154.930  41.138  56.0950  0.00  0.00     0.000 OA
ATOM     18   O  A00 X   1     153.796  41.249  54.3400  0.00  0.00     0.000 OA
ENDBRANCH 5 16
BRANCH 1 19
ATOM     19  O4  A00 X   2     152.121  43.810  54.9500  0.00  0.00     0.000 O
BRANCH 19 23
ATOM     20  C1  A00 X   2     151.284  46.150  51.4590  0.00  0.00     0.000 C
ATOM     21  C2  A00 X   2     151.134  46.842  52.8350  0.00  0.00     0.000 C
ATOM     22  C3  A00 X   2     151.867  46.044  53.9340  0.00  0.00     0.000 C
ATOM     23  C4  A00 X   2     151.392  44.573  53.9460  0.00  0.00     0.000 C
ATOM     24  C5  A00 X   2     151.575  44.003  52.5130  0.00  0.00     0.000 C
ATOM     25  O5  A00 X   2     150.781  44.793  51.5910  0.00  0.00     0.000 O
ATOM     26   O  A00 X   2     151.756  46.760  55.1760  0.00  0.00     0.000 O
ATOM     28  HD  A00 X   2     150.898  46.854  55.1030  0.00  0.00     0.000 HD
BRANCH 21 30
ATOM     28   N  A00 X   2     149.985  47.594  52.3220  0.00  0.00     0.000 N
ATOM     30  HD  A00 X   2     150.256  48.005  53.0340  0.00  0.00     0.000 HD
ATOM     30   O  A00 X   2     149.983  49.699  53.3350  0.00  0.00     0.000 OA
ATOM     31   S  A00 X   2     149.183  48.526  53.3160  0.00  0.00     0.000 S
ATOM     32   O  A00 X   2     147.907  48.674  52.6870  0.00  0.00     0.000 OA
ATOM     33   O  A00 X   2     149.049  47.812  54.5510  0.00  0.00     0.000 OA
ENDBRANCH 21 30
BRANCH 24 34
ATOM     34   C  A00 X   2     151.389  42.481  52.3090  0.00  0.00     0.000 C
ATOM     35   O  A00 X   2     148.679  40.997  50.3830  0.00  0.00     0.000 OA
ATOM     36   O  A00 X   2     150.067  42.177  51.8210  0.00  0.00     0.000 O
ATOM     37   O  A00 X   2     150.180  42.611  49.5250  0.00  0.00     0.000 OA
ATOM     38   S  A00 X   2     150.015  41.495  50.4050  0.00  0.00     0.000 S
ATOM     39   O  A00 X   2     151.037  40.491  50.4010  0.00  0.00     0.000 OA
ENDBRANCH 24 34
BRANCH 20 40
ATOM     40  O4  A00 X   3     152.693  46.116  51.1930  0.00  0.00     0.000 O
BRANCH 40 44
ATOM     41  C1  A00 X   3     155.729  44.312  50.3830  0.00  0.00     0.000 C
ATOM     42  C2  A00 X   3     155.641  45.840  50.5850  0.00  0.00     0.000 C
ATOM     43  C3  A00 X   3     154.500  46.449  49.7290  0.00  0.00     0.000 C
ATOM     44  C4  A00 X   3     153.155  45.748  49.8760  0.00  0.00     0.000 C
ATOM     45  C5  A00 X   3     153.325  44.219  49.6530  0.00  0.00     0.000 C
ATOM     46  O5  A00 X   3     154.417  43.689  50.4720  0.00  0.00     0.000 O
ATOM     47   O  A00 X   3     154.381  47.869  49.7700  0.00  0.00     0.000 O
ATOM     49  HD  A00 X   3     153.535  47.686  49.7680  0.00  0.00     0.000 HD
BRANCH 42 49
ATOM     49   O  A00 X   3     155.422  46.068  51.9950  0.00  0.00     0.000 O
ATOM     50   O  A00 X   3     155.082  47.968  53.4100  0.00  0.00     0.000 OA
ATOM     51   O  A00 X   3     156.709  48.096  51.7000  0.00  0.00     0.000 OA
ATOM     52   O  A00 X   3     157.105  46.649  53.5260  0.00  0.00     0.000 OA
ATOM     53   S  A00 X   3     156.112  47.263  52.7140  0.00  0.00     0.000 S
ENDBRANCH 42 49
BRANCH 45 54
ATOM     54   C  A00 X   3     153.464  43.874  48.1660  0.00  0.00     0.000 C
ATOM     55   O  A00 X   3     153.599  44.750  47.3370  0.00  0.00     0.000 OA
ATOM     56   O  A00 X   3     153.440  42.712  47.7890  0.00  0.00     0.000 OA
ENDBRANCH 45 54
BRANCH 41 57
ATOM     57  O4  A00 X   4     156.458  43.974  49.1820  0.00  0.00     0.000 O
BRANCH 57 61
ATOM     58  C1  A00 X   4     159.123  40.737  48.1530  0.00  0.00     0.000 C
ATOM     59  C2  A00 X   4     157.613  40.430  48.3170  0.00  0.00     0.000 C
ATOM     60  C3  A00 X   4     156.727  41.693  48.3240  0.00  0.00     0.000 C
ATOM     61  C4  A00 X   4     157.281  42.776  49.2750  0.00  0.00     0.000 C
ATOM     62  C5  A00 X   4     158.723  43.078  48.7980  0.00  0.00     0.000 C
ATOM     63  O5  A00 X   4     159.532  41.882  48.9360  0.00  0.00     0.000 O
BRANCH 59 66
ATOM     64   N  A00 X   4     157.083  39.715  49.4910  0.00  0.00     0.000 N
ATOM     66  HD  A00 X   4     157.457  39.870  50.2570  0.00  0.00     0.000 HD
ATOM     66   O  A00 X   4     158.032  37.703  48.5690  0.00  0.00     0.000 OA
ATOM     67   S  A00 X   4     156.959  38.122  49.4150  0.00  0.00     0.000 S
ATOM     68   O  A00 X   4     157.099  37.785  50.8010  0.00  0.00     0.000 OA
ATOM     69   O  A00 X   4     155.621  37.996  48.9110  0.00  0.00     0.000 OA
ENDBRANCH 59 66
BRANCH 62 70
ATOM     70   C  A00 X   4     159.414  44.230  49.5670  0.00  0.00     0.000 C
ATOM     71   O  A00 X   4     162.889  45.242  49.4790  0.00  0.00     0.000 OA
ATOM     72   O  A00 X   4     161.458  44.826  51.3020  0.00  0.00     0.000 OA
ATOM     73   O  A00 X   4     160.738  44.423  49.0430  0.00  0.00     0.000 O
ATOM     74   O  A00 X   4     162.369  42.954  50.0350  0.00  0.00     0.000 OA
ATOM     75   S  A00 X   4     161.945  44.317  50.0390  0.00  0.00     0.000 S
ENDBRANCH 62 70
ENDBRANCH 57 61
ENDBRANCH 41 57
ENDBRANCH 40 44
ENDBRANCH 20 40
ENDBRANCH 19 23
ENDBRANCH 1 19
TORSDOF 14
ENDMDL
MODEL 12
REMARK VINA RESULT:      -2.9     35.852     40.673
ROOT
ATOM      1  C1  A00 X   1     118.082  29.708  58.7290  0.00  0.00     0.000 C
ATOM      2  C2  A00 X   1     117.213  29.122  59.8740  0.00  0.00     0.000 C
ATOM      3  C3  A00 X   1     116.099  28.112  59.4430  0.00  0.00     0.000 C
ATOM      4  C4  A00 X   1     115.755  28.101  57.9310  0.00  0.00     0.000 C
ATOM      5  C5  A00 X   1     116.148  29.407  57.2400  0.00  0.00     0.000 C
ATOM      6  O5  A00 X   1     117.584  29.482  57.3870  0.00  0.00     0.000 O
ATOM      7   O  A00 X   1     114.893  28.442  60.1290  0.00  0.00     0.000 O
ATOM      9  HD  A00 X   1     114.677  28.244  59.3140  0.00  0.00     0.000 HD
ATOM      9   O  A00 X   1     116.370  26.999  57.2650  0.00  0.00     0.000 O
ATOM     11  HD  A00 X   1     116.154  26.801  56.4500  0.00  0.00     0.000 HD
ENDROOT
BRANCH 2 11
ATOM     11   O  A00 X   1     118.098  28.473  60.8080  0.00  0.00     0.000 O
ATOM     12   O  A00 X   1     120.356  27.896  60.2270  0.00  0.00     0.000 OA
ATOM     13   O  A00 X   1     118.514  26.830  59.0490  0.00  0.00     0.000 OA
ATOM     14   O  A00 X   1     118.914  26.352  61.3440  0.00  0.00     0.000 OA
ATOM     15   S  A00 X   1     119.034  27.325  60.2930  0.00  0.00     0.000 S
ENDBRANCH 2 11
BRANCH 5 16
ATOM     16   C  A00 X   1     115.414  30.653  57.7450  0.00  0.00     0.000 C
ATOM     17   O  A00 X   1     115.979  31.726  57.6810  0.00  0.00     0.000 OA
ATOM     18   O  A00 X   1     114.288  30.607  58.1990  0.00  0.00     0.000 OA
ENDBRANCH 5 16
BRANCH 1 19
ATOM     19  O4  A00 X   2     118.422  31.100  58.9400  0.00  0.00     0.000 O
BRANCH 19 23
ATOM     20  C1  A00 X   2     121.631  33.503  57.4240  0.00  0.00     0.000 C
ATOM     21  C2  A00 X   2     120.502  33.114  56.4390  0.00  0.00     0.000 C
ATOM     22  C3  A00 X   2     119.245  32.644  57.2010  0.00  0.00     0.000 C
ATOM     23  C4  A00 X   2     119.600  31.508  58.1850  0.00  0.00     0.000 C
ATOM     24  C5  A00 X   2     120.749  32.013  59.1000  0.00  0.00     0.000 C
ATOM     25  O5  A00 X   2     121.891  32.352  58.2720  0.00  0.00     0.000 O
ATOM     26   O  A00 X   2     118.207  32.362  56.2470  0.00  0.00     0.000 O
ATOM     28  HD  A00 X   2     118.721  31.863  55.7600  0.00  0.00     0.000 HD
BRANCH 21 30
ATOM     28   N  A00 X   2     121.528  33.137  55.3910  0.00  0.00     0.000 N
ATOM     30  HD  A00 X   2     120.761  33.093  54.9900  0.00  0.00     0.000 HD
ATOM     30   O  A00 X   2     120.486  33.656  53.3650  0.00  0.00     0.000 OA
ATOM     31   S  A00 X   2     121.166  32.563  53.9630  0.00  0.00     0.000 S
ATOM     32   O  A00 X   2     122.440  32.257  53.3890  0.00  0.00     0.000 OA
ATOM     33   O  A00 X   2     120.412  31.362  54.1680  0.00  0.00     0.000 OA
ENDBRANCH 21 30
BRANCH 24 34
ATOM     34   C  A00 X   2     121.135  31.150  60.3250  0.00  0.00     0.000 C
ATOM     35   O  A00 X   2     121.241  32.393  63.7450  0.00  0.00     0.000 OA
ATOM     36   O  A00 X   2     121.433  31.972  61.4710  0.00  0.00     0.000 O
ATOM     37   O  A00 X   2     119.337  32.528  62.3490  0.00  0.00     0.000 OA
ATOM     38   S  A00 X   2     120.490  31.761  62.7110  0.00  0.00     0.000 S
ATOM     39   O  A00 X   2     120.326  30.346  62.8590  0.00  0.00     0.000 OA
ENDBRANCH 24 34
BRANCH 20 40
ATOM     40  O4  A00 X   3     121.101  34.573  58.2190  0.00  0.00     0.000 O
BRANCH 40 44
ATOM     41  C1  A00 X   3     120.681  36.362  61.3410  0.00  0.00     0.000 C
ATOM     42  C2  A00 X   3     120.091  36.808  59.9850  0.00  0.00     0.000 C
ATOM     43  C3  A00 X   3     121.182  36.825  58.8840  0.00  0.00     0.000 C
ATOM     44  C4  A00 X   3     122.004  35.546  58.7860  0.00  0.00     0.000 C
ATOM     45  C5  A00 X   3     122.566  35.167  60.1850  0.00  0.00     0.000 C
ATOM     46  O5  A00 X   3     121.505  35.173  61.1940  0.00  0.00     0.000 O
ATOM     47   O  A00 X   3     120.770  37.305  57.6060  0.00  0.00     0.000 O
ATOM     49  HD  A00 X   3     121.281  36.665  57.3250  0.00  0.00     0.000 HD
BRANCH 42 49
ATOM     49   O  A00 X   3     119.029  35.884  59.6610  0.00  0.00     0.000 O
ATOM     50   O  A00 X   3     117.459  35.605  57.8760  0.00  0.00     0.000 OA
ATOM     51   O  A00 X   3     117.894  37.784  58.6840  0.00  0.00     0.000 OA
ATOM     52   O  A00 X   3     116.753  36.267  60.0920  0.00  0.00     0.000 OA
ATOM     53   S  A00 X   3     117.699  36.400  59.0390  0.00  0.00     0.000 S
ENDBRANCH 42 49
BRANCH 45 54
ATOM     54   C  A00 X   3     123.769  36.038  60.5690  0.00  0.00     0.000 C
ATOM     55   O  A00 X   3     124.448  35.763  61.5370  0.00  0.00     0.000 OA
ATOM     56   O  A00 X   3     124.063  37.023  59.9090  0.00  0.00     0.000 OA
ENDBRANCH 45 54
BRANCH 41 57
ATOM     57  O4  A00 X   4     121.341  37.454  62.0200  0.00  0.00     0.000 O
BRANCH 57 61
ATOM     58  C1  A00 X   4     122.448  37.482  66.1930  0.00  0.00     0.000 C
ATOM     59  C2  A00 X   4     122.039  36.136  65.5440  0.00  0.00     0.000 C
ATOM     60  C3  A00 X   4     122.017  36.179  64.0020  0.00  0.00     0.000 C
ATOM     61  C4  A00 X   4     121.260  37.416  63.4730  0.00  0.00     0.000 C
ATOM     62  C5  A00 X   4     121.968  38.653  64.0820  0.00  0.00     0.000 C
ATOM     63  O5  A00 X   4     121.841  38.612  65.5260  0.00  0.00     0.000 O
BRANCH 59 66
ATOM     64   N  A00 X   4     122.198  34.676  65.6670  0.00  0.00     0.000 N
ATOM     66  HD  A00 X   4     121.608  34.175  65.2790  0.00  0.00     0.000 HD
ATOM     66   O  A00 X   4     121.603  34.908  67.9890  0.00  0.00     0.000 OA
ATOM     67   S  A00 X   4     122.363  34.053  67.1310  0.00  0.00     0.000 S
ATOM     68   O  A00 X   4     121.814  32.746  66.9190  0.00  0.00     0.000 OA
ATOM     69   O  A00 X   4     123.793  34.077  67.2570  0.00  0.00     0.000 OA
ENDBRANCH 59 66
BRANCH 62 70
ATOM     70   C  A00 X   4     121.417  40.008  63.5780  0.00  0.00     0.000 C
ATOM     71   O  A00 X   4     122.955  43.281  63.7520  0.00  0.00     0.000 OA
ATOM     72   O  A00 X   4     120.789  42.570  64.3430  0.00  0.00     0.000 OA
ATOM     73   O  A00 X   4     122.460  40.994  63.6300  0.00  0.00     0.000 O
ATOM     74   O  A00 X   4     122.671  42.031  65.7940  0.00  0.00     0.000 OA
ATOM     75   S  A00 X   4     122.202  42.292  64.4710  0.00  0.00     0.000 S
ENDBRANCH 62 70
ENDBRANCH 57 61
ENDBRANCH 41 57
ENDBRANCH 40 44
ENDBRANCH 20 40
ENDBRANCH 19 23
ENDBRANCH 1 19
TORSDOF 14
ENDMDL
MODEL 13
REMARK VINA RESULT:      -2.3     36.277     42.651
ROOT
ATOM      1  C1  A00 X   1     117.540  27.750  57.3290  0.00  0.00     0.000 C
ATOM      2  C2  A00 X   1     117.163  26.356  57.8980  0.00  0.00     0.000 C
ATOM      3  C3  A00 X   1     116.932  26.283  59.4430  0.00  0.00     0.000 C
ATOM      4  C4  A00 X   1     117.457  27.495  60.2550  0.00  0.00     0.000 C
ATOM      5  C5  A00 X   1     118.554  28.257  59.5110  0.00  0.00     0.000 C
ATOM      6  O5  A00 X   1     117.913  28.747  58.3120  0.00  0.00     0.000 O
ATOM      7   O  A00 X   1     117.604  25.133  59.9520  0.00  0.00     0.000 O
ATOM      9  HD  A00 X   1     117.739  25.778  60.5150  0.00  0.00     0.000 HD
ATOM      9   O  A00 X   1     116.400  28.389  60.6010  0.00  0.00     0.000 O
ATOM     11  HD  A00 X   1     116.534  29.033  61.1640  0.00  0.00     0.000 HD
ENDROOT
BRANCH 2 11
ATOM     11   O  A00 X   1     115.968  25.916  57.2240  0.00  0.00     0.000 O
ATOM     12   O  A00 X   1     114.658  24.074  58.0350  0.00  0.00     0.000 OA
ATOM     13   O  A00 X   1     116.935  23.673  57.2800  0.00  0.00     0.000 OA
ATOM     14   O  A00 X   1     115.240  24.279  55.7260  0.00  0.00     0.000 OA
ATOM     15   S  A00 X   1     115.698  24.378  57.0850  0.00  0.00     0.000 S
ENDBRANCH 2 11
BRANCH 5 16
ATOM     16   C  A00 X   1     119.830  27.453  59.2380  0.00  0.00     0.000 C
ATOM     17   O  A00 X   1     119.993  26.404  59.8270  0.00  0.00     0.000 OA
ATOM     18   O  A00 X   1     120.679  27.824  58.4520  0.00  0.00     0.000 OA
ENDBRANCH 5 16
BRANCH 1 19
ATOM     19  O4  A00 X   2     118.512  27.675  56.2570  0.00  0.00     0.000 O
BRANCH 19 23
ATOM     20  C1  A00 X   2     118.072  28.315  52.0430  0.00  0.00     0.000 C
ATOM     21  C2  A00 X   2     117.464  29.375  52.9940  0.00  0.00     0.000 C
ATOM     22  C3  A00 X   2     118.062  29.248  54.4110  0.00  0.00     0.000 C
ATOM     23  C4  A00 X   2     117.903  27.805  54.9410  0.00  0.00     0.000 C
ATOM     24  C5  A00 X   2     118.531  26.844  53.8950  0.00  0.00     0.000 C
ATOM     25  O5  A00 X   2     117.836  27.008  52.6320  0.00  0.00     0.000 O
ATOM     26   O  A00 X   2     117.519  30.294  55.2350  0.00  0.00     0.000 O
ATOM     28  HD  A00 X   2     116.702  30.115  55.0110  0.00  0.00     0.000 HD
BRANCH 21 30
ATOM     28   N  A00 X   2     116.383  29.565  52.0220  0.00  0.00     0.000 N
ATOM     30  HD  A00 X   2     116.354  30.240  52.5650  0.00  0.00     0.000 HD
ATOM     30   O  A00 X   2     115.678  31.789  52.1460  0.00  0.00     0.000 OA
ATOM     31   S  A00 X   2     115.165  30.493  52.4150  0.00  0.00     0.000 S
ATOM     32   O  A00 X   2     114.117  30.064  51.5410  0.00  0.00     0.000 OA
ATOM     33   O  A00 X   2     114.830  30.197  53.7760  0.00  0.00     0.000 OA
ENDBRANCH 21 30
BRANCH 24 34
ATOM     34   C  A00 X   2     118.709  25.358  54.2890  0.00  0.00     0.000 C
ATOM     35   O  A00 X   2     121.933  23.779  54.8930  0.00  0.00     0.000 OA
ATOM     36   O  A00 X   2     120.075  24.931  54.1150  0.00  0.00     0.000 O
ATOM     37   O  A00 X   2     121.177  25.713  56.0240  0.00  0.00     0.000 OA
ATOM     38   S  A00 X   2     120.804  24.466  55.4280  0.00  0.00     0.000 S
ATOM     39   O  A00 X   2     119.873  23.643  56.1390  0.00  0.00     0.000 OA
ENDBRANCH 24 34
BRANCH 20 40
ATOM     40  O4  A00 X   3     119.482  28.581  52.0150  0.00  0.00     0.000 O
BRANCH 40 44
ATOM     41  C1  A00 X   3     123.066  28.893  51.5900  0.00  0.00     0.000 C
ATOM     42  C2  A00 X   3     122.041  30.002  51.2660  0.00  0.00     0.000 C
ATOM     43  C3  A00 X   3     120.903  29.460  50.3640  0.00  0.00     0.000 C
ATOM     44  C4  A00 X   3     120.254  28.176  50.8650  0.00  0.00     0.000 C
ATOM     45  C5  A00 X   3     121.346  27.110  51.1630  0.00  0.00     0.000 C
ATOM     46  O5  A00 X   3     122.404  27.667  52.0080  0.00  0.00     0.000 O
ATOM     47   O  A00 X   3     119.942  30.420  49.9290  0.00  0.00     0.000 O
ATOM     49  HD  A00 X   3     119.392  29.766  50.0680  0.00  0.00     0.000 HD
BRANCH 42 49
ATOM     49   O  A00 X   3     121.530  30.487  52.5270  0.00  0.00     0.000 O
ATOM     50   O  A00 X   3     119.926  32.117  53.2350  0.00  0.00     0.000 OA
ATOM     51   O  A00 X   3     121.382  32.649  51.4500  0.00  0.00     0.000 OA
ATOM     52   O  A00 X   3     122.294  32.421  53.6180  0.00  0.00     0.000 OA
ATOM     53   S  A00 X   3     121.260  32.006  52.7340  0.00  0.00     0.000 S
ENDBRANCH 42 49
BRANCH 45 54
ATOM     54   C  A00 X   3     121.878  26.467  49.8770  0.00  0.00     0.000 C
ATOM     55   O  A00 X   3     121.563  26.905  48.7900  0.00  0.00     0.000 OA
ATOM     56   O  A00 X   3     122.625  25.502  49.9230  0.00  0.00     0.000 OA
ENDBRANCH 45 54
BRANCH 41 57
ATOM     57  O4  A00 X   4     124.013  28.711  50.5140  0.00  0.00     0.000 O
BRANCH 57 61
ATOM     58  C1  A00 X   4     128.149  27.472  50.4570  0.00  0.00     0.000 C
ATOM     59  C2  A00 X   4     127.110  26.558  51.1550  0.00  0.00     0.000 C
ATOM     60  C3  A00 X   4     125.650  26.909  50.8050  0.00  0.00     0.000 C
ATOM     61  C4  A00 X   4     125.377  28.423  50.9340  0.00  0.00     0.000 C
ATOM     62  C5  A00 X   4     126.387  29.129  49.9950  0.00  0.00     0.000 C
ATOM     63  O5  A00 X   4     127.736  28.858  50.4560  0.00  0.00     0.000 O
BRANCH 59 66
ATOM     64   N  A00 X   4     127.179  26.663  52.6230  0.00  0.00     0.000 N
ATOM     66  HD  A00 X   4     127.447  27.416  52.9580  0.00  0.00     0.000 HD
ATOM     66   O  A00 X   4     129.049  25.149  52.5440  0.00  0.00     0.000 OA
ATOM     67   S  A00 X   4     127.996  25.546  53.4250  0.00  0.00     0.000 S
ATOM     68   O  A00 X   4     128.405  26.300  54.5740  0.00  0.00     0.000 OA
ATOM     69   O  A00 X   4     126.947  24.602  53.6840  0.00  0.00     0.000 OA
ENDBRANCH 59 66
BRANCH 62 70
ATOM     70   C  A00 X   4     126.199  30.662  49.9020  0.00  0.00     0.000 C
ATOM     71   O  A00 X   4     125.916  32.729  46.9430  0.00  0.00     0.000 OA
ATOM     72   O  A00 X   4     127.264  32.968  48.8590  0.00  0.00     0.000 OA
ATOM     73   O  A00 X   4     125.889  31.020  48.5450  0.00  0.00     0.000 O
ATOM     74   O  A00 X   4     127.850  31.307  47.1750  0.00  0.00     0.000 OA
ATOM     75   S  A00 X   4     126.824  32.055  47.8280  0.00  0.00     0.000 S
ENDBRANCH 62 70
ENDBRANCH 57 61
ENDBRANCH 41 57
ENDBRANCH 40 44
ENDBRANCH 20 40
ENDBRANCH 19 23
ENDBRANCH 1 19
TORSDOF 14
ENDMDL
MODEL 14
REMARK VINA RESULT:      -2.1     35.809     42.985
ROOT
ATOM      1  C1  A00 X   1     116.952  27.731  56.5500  0.00  0.00     0.000 C
ATOM      2  C2  A00 X   1     116.692  29.013  57.3840  0.00  0.00     0.000 C
ATOM      3  C3  A00 X   1     115.984  30.189  56.6350  0.00  0.00     0.000 C
ATOM      4  C4  A00 X   1     115.963  30.080  55.0880  0.00  0.00     0.000 C
ATOM      5  C5  A00 X   1     117.071  29.169  54.5590  0.00  0.00     0.000 C
ATOM      6  O5  A00 X   1     116.777  27.870  55.1180  0.00  0.00     0.000 O
ATOM      7   O  A00 X   1     116.663  31.404  56.9450  0.00  0.00     0.000 O
ATOM      9  HD  A00 X   1     116.475  31.425  56.1000  0.00  0.00     0.000 HD
ATOM      9   O  A00 X   1     114.696  29.623  54.6140  0.00  0.00     0.000 O
ATOM     11  HD  A00 X   1     114.509  29.644  53.7690  0.00  0.00     0.000 HD
ENDROOT
BRANCH 2 11
ATOM     11   O  A00 X   1     115.896  28.638  58.5260  0.00  0.00     0.000 O
ATOM     12   O  A00 X   1     114.879  30.276  59.9570  0.00  0.00     0.000 OA
ATOM     13   O  A00 X   1     117.304  30.156  59.8230  0.00  0.00     0.000 OA
ATOM     14   O  A00 X   1     116.066  28.400  60.8430  0.00  0.00     0.000 OA
ATOM     15   S  A00 X   1     116.054  29.449  59.8590  0.00  0.00     0.000 S
ENDBRANCH 2 11
BRANCH 5 16
ATOM     16   C  A00 X   1     118.497  29.651  54.8450  0.00  0.00     0.000 C
ATOM     17   O  A00 X   1     119.419  28.884  54.6570  0.00  0.00     0.000 OA
ATOM     18   O  A00 X   1     118.738  30.772  55.2460  0.00  0.00     0.000 OA
ENDBRANCH 5 16
BRANCH 1 19
ATOM     19  O4  A00 X   2     118.217  27.101  56.8680  0.00  0.00     0.000 O
BRANCH 19 23
ATOM     20  C1  A00 X   2     119.963  26.144  60.6630  0.00  0.00     0.000 C
ATOM     21  C2  A00 X   2     118.469  25.796  60.4560  0.00  0.00     0.000 C
ATOM     22  C3  A00 X   2     118.109  25.790  58.9550  0.00  0.00     0.000 C
ATOM     23  C4  A00 X   2     118.511  27.128  58.2940  0.00  0.00     0.000 C
ATOM     24  C5  A00 X   2     120.017  27.369  58.5890  0.00  0.00     0.000 C
ATOM     25  O5  A00 X   2     120.209  27.426  60.0270  0.00  0.00     0.000 O
ATOM     26   O  A00 X   2     116.734  25.396  58.8120  0.00  0.00     0.000 O
ATOM     28  HD  A00 X   2     116.456  25.969  59.3980  0.00  0.00     0.000 HD
BRANCH 21 30
ATOM     28   N  A00 X   2     117.551  24.657  60.5540  0.00  0.00     0.000 N
ATOM     30  HD  A00 X   2     117.666  24.956  61.3580  0.00  0.00     0.000 HD
ATOM     30   O  A00 X   2     116.512  24.737  62.6450  0.00  0.00     0.000 OA
ATOM     31   S  A00 X   2     117.420  23.905  61.9380  0.00  0.00     0.000 S
ATOM     32   O  A00 X   2     116.906  22.620  61.5780  0.00  0.00     0.000 OA
ATOM     33   O  A00 X   2     118.741  23.779  62.4780  0.00  0.00     0.000 OA
ENDBRANCH 21 30
BRANCH 24 34
ATOM     34   C  A00 X   2     120.726  28.526  57.8460  0.00  0.00     0.000 C
ATOM     35   O  A00 X   2     120.022  32.052  58.4180  0.00  0.00     0.000 OA
ATOM     36   O  A00 X   2     120.011  29.767  58.0100  0.00  0.00     0.000 O
ATOM     37   O  A00 X   2     120.662  30.540  60.1190  0.00  0.00     0.000 OA
ATOM     38   S  A00 X   2     120.807  30.908  58.7440  0.00  0.00     0.000 S
ATOM     39   O  A00 X   2     122.128  30.900  58.1910  0.00  0.00     0.000 OA
ENDBRANCH 24 34
BRANCH 20 40
ATOM     40  O4  A00 X   3     120.698  25.119  59.9790  0.00  0.00     0.000 O
BRANCH 40 44
ATOM     41  C1  A00 X   3     123.298  23.371  58.1600  0.00  0.00     0.000 C
ATOM     42  C2  A00 X   3     122.122  22.686  58.8910  0.00  0.00     0.000 C
ATOM     43  C3  A00 X   3     122.001  23.199  60.3490  0.00  0.00     0.000 C
ATOM     44  C4  A00 X   3     121.988  24.716  60.4880  0.00  0.00     0.000 C
ATOM     45  C5  A00 X   3     123.201  25.330  59.7330  0.00  0.00     0.000 C
ATOM     46  O5  A00 X   3     123.283  24.811  58.3660  0.00  0.00     0.000 O
ATOM     47   O  A00 X   3     121.000  22.572  61.1490  0.00  0.00     0.000 O
ATOM     49  HD  A00 X   3     120.888  23.379  61.4420  0.00  0.00     0.000 HD
BRANCH 42 49
ATOM     49   O  A00 X   3     120.928  22.971  58.1300  0.00  0.00     0.000 O
ATOM     50   O  A00 X   3     118.588  22.516  58.3440  0.00  0.00     0.000 OA
ATOM     51   O  A00 X   3     120.135  20.809  58.8750  0.00  0.00     0.000 OA
ATOM     52   O  A00 X   3     119.926  21.479  56.6180  0.00  0.00     0.000 OA
ATOM     53   S  A00 X   3     119.818  21.890  57.9750  0.00  0.00     0.000 S
ENDBRANCH 42 49
BRANCH 45 54
ATOM     54   C  A00 X   3     124.505  25.161  60.5210  0.00  0.00     0.000 C
ATOM     55   O  A00 X   3     125.533  25.677  60.1340  0.00  0.00     0.000 OA
ATOM     56   O  A00 X   3     124.532  24.505  61.5510  0.00  0.00     0.000 OA
ENDBRANCH 45 54
BRANCH 41 57
ATOM     57  O4  A00 X   4     124.561  22.746  58.4800  0.00  0.00     0.000 O
BRANCH 57 61
ATOM     58  C1  A00 X   4     128.365  22.578  56.4440  0.00  0.00     0.000 C
ATOM     59  C2  A00 X   4     128.048  23.814  57.3210  0.00  0.00     0.000 C
ATOM     60  C3  A00 X   4     126.848  23.606  58.2670  0.00  0.00     0.000 C
ATOM     61  C4  A00 X   4     125.634  23.000  57.5290  0.00  0.00     0.000 C
ATOM     62  C5  A00 X   4     126.124  21.670  56.9050  0.00  0.00     0.000 C
ATOM     63  O5  A00 X   4     127.165  21.952  55.9350  0.00  0.00     0.000 O
BRANCH 59 66
ATOM     64   N  A00 X   4     128.899  24.672  58.1660  0.00  0.00     0.000 N
ATOM     66  HD  A00 X   4     128.532  25.370  58.5240  0.00  0.00     0.000 HD
ATOM     66   O  A00 X   4     130.038  25.350  56.1550  0.00  0.00     0.000 OA
ATOM     67   S  A00 X   4     130.279  25.204  57.5570  0.00  0.00     0.000 S
ATOM     68   O  A00 X   4     130.429  26.428  58.2870  0.00  0.00     0.000 OA
ATOM     69   O  A00 X   4     131.163  24.155  57.9790  0.00  0.00     0.000 OA
ENDBRANCH 59 66
BRANCH 62 70
ATOM     70   C  A00 X   4     125.011  20.852  56.2070  0.00  0.00     0.000 C
ATOM     71   O  A00 X   4     123.750  21.171  52.8280  0.00  0.00     0.000 OA
ATOM     72   O  A00 X   4     122.611  21.047  54.8850  0.00  0.00     0.000 OA
ATOM     73   O  A00 X   4     125.013  21.150  54.8010  0.00  0.00     0.000 O
ATOM     74   O  A00 X   4     123.733  23.116  54.2530  0.00  0.00     0.000 OA
ATOM     75   S  A00 X   4     123.686  21.692  54.1650  0.00  0.00     0.000 S
ENDBRANCH 62 70
ENDBRANCH 57 61
ENDBRANCH 41 57
ENDBRANCH 40 44
ENDBRANCH 20 40
ENDBRANCH 19 23
ENDBRANCH 1 19
TORSDOF 14
ENDMDL
MODEL 15
REMARK VINA RESULT:      -1.6      6.581     12.151
ROOT
ATOM      1  C1  A00 X   1     154.084  44.223  55.6600  0.00  0.00     0.000 C
ATOM      2  C2  A00 X   1     154.623  44.324  57.1120  0.00  0.00     0.000 C
ATOM      3  C3  A00 X   1     156.173  44.199  57.2800  0.00  0.00     0.000 C
ATOM      4  C4  A00 X   1     156.935  43.632  56.0550  0.00  0.00     0.000 C
ATOM      5  C5  A00 X   1     156.028  42.808  55.1410  0.00  0.00     0.000 C
ATOM      6  O5  A00 X   1     155.031  43.744  54.6730  0.00  0.00     0.000 O
ATOM      7   O  A00 X   1     156.446  43.320  58.3690  0.00  0.00     0.000 O
ATOM      9  HD  A00 X   1     157.010  43.130  57.7400  0.00  0.00     0.000 HD
ATOM      9   O  A00 X   1     157.561  44.672  55.3020  0.00  0.00     0.000 O
ATOM     11  HD  A00 X   1     158.125  44.481  54.6730  0.00  0.00     0.000 HD
ENDROOT
BRANCH 2 11
ATOM     11   O  A00 X   1     154.192  45.588  57.6530  0.00  0.00     0.000 O
ATOM     12   O  A00 X   1     153.818  47.506  56.2560  0.00  0.00     0.000 OA
ATOM     13   O  A00 X   1     156.061  46.582  56.4330  0.00  0.00     0.000 OA
ATOM     14   O  A00 X   1     155.052  47.661  58.2970  0.00  0.00     0.000 OA
ATOM     15   S  A00 X   1     154.827  46.908  57.0930  0.00  0.00     0.000 S
ENDBRANCH 2 11
BRANCH 5 16
ATOM     16   C  A00 X   1     155.434  41.550  55.7830  0.00  0.00     0.000 C
ATOM     17   O  A00 X   1     155.923  41.137  56.8140  0.00  0.00     0.000 OA
ATOM     18   O  A00 X   1     154.489  40.957  55.3010  0.00  0.00     0.000 OA
ENDBRANCH 5 16
BRANCH 1 19
ATOM     19  O4  A00 X   2     152.827  43.509  55.5760  0.00  0.00     0.000 O
BRANCH 19 23
ATOM     20  C1  A00 X   2     151.246  45.991  52.4600  0.00  0.00     0.000 C
ATOM     21  C2  A00 X   2     150.880  46.356  53.9190  0.00  0.00     0.000 C
ATOM     22  C3  A00 X   2     151.841  45.672  54.9140  0.00  0.00     0.000 C
ATOM     23  C4  A00 X   2     151.882  44.146  54.6690  0.00  0.00     0.000 C
ATOM     24  C5  A00 X   2     152.239  43.915  53.1750  0.00  0.00     0.000 C
ATOM     25  O5  A00 X   2     151.224  44.543  52.3500  0.00  0.00     0.000 O
ATOM     26   O  A00 X   2     151.504  46.095  56.2460  0.00  0.00     0.000 O
ATOM     28  HD  A00 X   2     150.663  45.913  56.1450  0.00  0.00     0.000 HD
BRANCH 21 30
ATOM     28   N  A00 X   2     150.849  47.360  54.9860  0.00  0.00     0.000 N
ATOM     30  HD  A00 X   2     150.243  47.588  54.4100  0.00  0.00     0.000 HD
ATOM     30   O  A00 X   2     148.847  48.552  54.8040  0.00  0.00     0.000 OA
ATOM     31   S  A00 X   2     150.241  48.785  54.6690  0.00  0.00     0.000 S
ATOM     32   O  A00 X   2     150.813  49.628  55.6740  0.00  0.00     0.000 OA
ATOM     33   O  A00 X   2     150.713  49.167  53.3720  0.00  0.00     0.000 OA
ENDBRANCH 21 30
BRANCH 24 34
ATOM     34   C  A00 X   2     152.569  42.473  52.7230  0.00  0.00     0.000 C
ATOM     35   O  A00 X   2     154.686  41.661  49.8740  0.00  0.00     0.000 OA
ATOM     36   O  A00 X   2     153.118  42.456  51.3900  0.00  0.00     0.000 O
ATOM     37   O  A00 X   2     155.368  43.026  51.6810  0.00  0.00     0.000 OA
ATOM     38   S  A00 X   2     154.584  41.899  51.2770  0.00  0.00     0.000 S
ATOM     39   O  A00 X   2     154.637  40.726  52.0960  0.00  0.00     0.000 OA
ENDBRANCH 24 34
BRANCH 20 40
ATOM     40  O4  A00 X   3     152.586  46.466  52.2660  0.00  0.00     0.000 O
BRANCH 40 44
ATOM     41  C1  A00 X   3     155.801  47.821  51.2880  0.00  0.00     0.000 C
ATOM     42  C2  A00 X   3     154.514  48.655  51.4750  0.00  0.00     0.000 C
ATOM     43  C3  A00 X   3     153.332  48.036  50.6850  0.00  0.00     0.000 C
ATOM     44  C4  A00 X   3     153.120  46.547  50.9260  0.00  0.00     0.000 C
ATOM     45  C5  A00 X   3     154.454  45.777  50.7150  0.00  0.00     0.000 C
ATOM     46  O5  A00 X   3     155.543  46.402  51.4700  0.00  0.00     0.000 O
ATOM     47   O  A00 X   3     152.111  48.771  50.7130  0.00  0.00     0.000 O
ATOM     49  HD  A00 X   3     151.766  47.979  50.7670  0.00  0.00     0.000 HD
BRANCH 42 49
ATOM     49   O  A00 X   3     154.238  48.695  52.8920  0.00  0.00     0.000 O
ATOM     50   O  A00 X   3     153.614  50.366  54.4880  0.00  0.00     0.000 OA
ATOM     51   O  A00 X   3     155.243  50.896  52.8590  0.00  0.00     0.000 OA
ATOM     52   O  A00 X   3     155.795  49.323  54.5340  0.00  0.00     0.000 OA
ATOM     53   S  A00 X   3     154.744  49.885  53.7580  0.00  0.00     0.000 S
ENDBRANCH 42 49
BRANCH 45 54
ATOM     54   C  A00 X   3     154.777  45.599  49.2270  0.00  0.00     0.000 C
ATOM     55   O  A00 X   3     154.164  46.220  48.3820  0.00  0.00     0.000 OA
ATOM     56   O  A00 X   3     155.654  44.830  48.8650  0.00  0.00     0.000 OA
ENDBRANCH 45 54
BRANCH 41 57
ATOM     57  O4  A00 X   4     156.469  48.142  50.0480  0.00  0.00     0.000 O
BRANCH 57 61
ATOM     58  C1  A00 X   4     160.625  48.306  48.8900  0.00  0.00     0.000 C
ATOM     59  C2  A00 X   4     160.002  46.927  49.2220  0.00  0.00     0.000 C
ATOM     60  C3  A00 X   4     158.460  46.944  49.2660  0.00  0.00     0.000 C
ATOM     61  C4  A00 X   4     157.924  48.122  50.1070  0.00  0.00     0.000 C
ATOM     62  C5  A00 X   4     158.504  49.411  49.4720  0.00  0.00     0.000 C
ATOM     63  O5  A00 X   4     159.951  49.385  49.5770  0.00  0.00     0.000 O
BRANCH 59 66
ATOM     64   N  A00 X   4     160.295  46.186  50.4620  0.00  0.00     0.000 N
ATOM     66  HD  A00 X   4     160.395  46.646  51.1880  0.00  0.00     0.000 HD
ATOM     66   O  A00 X   4     162.471  45.711  49.5460  0.00  0.00     0.000 OA
ATOM     67   S  A00 X   4     161.520  45.157  50.4580  0.00  0.00     0.000 S
ATOM     68   O  A00 X   4     161.895  45.198  51.8410  0.00  0.00     0.000 OA
ATOM     69   O  A00 X   4     160.839  43.955  50.0680  0.00  0.00     0.000 OA
ENDBRANCH 59 66
BRANCH 62 70
ATOM     70   C  A00 X   4     157.988  50.720  50.1150  0.00  0.00     0.000 C
ATOM     71   O  A00 X   4     156.074  53.387  48.5900  0.00  0.00     0.000 OA
ATOM     72   O  A00 X   4     158.024  53.458  49.9070  0.00  0.00     0.000 OA
ATOM     73   O  A00 X   4     157.070  51.362  49.2150  0.00  0.00     0.000 O
ATOM     74   O  A00 X   4     158.168  52.749  47.5800  0.00  0.00     0.000 OA
ATOM     75   S  A00 X   4     157.385  52.832  48.7710  0.00  0.00     0.000 S
ENDBRANCH 62 70
ENDBRANCH 57 61
ENDBRANCH 41 57
ENDBRANCH 40 44
ENDBRANCH 20 40
ENDBRANCH 19 23
ENDBRANCH 1 19
TORSDOF 14
ENDMDL
MODEL 16
REMARK VINA RESULT:      -0.6      6.017     11.559
ROOT
ATOM      1  C1  A00 X   1     156.081  47.933  55.2160  0.00  0.00     0.000 C
ATOM      2  C2  A00 X   1     155.144  49.103  54.8110  0.00  0.00     0.000 C
ATOM      3  C3  A00 X   1     155.848  50.391  54.2700  0.00  0.00     0.000 C
ATOM      4  C4  A00 X   1     157.371  50.486  54.5450  0.00  0.00     0.000 C
ATOM      5  C5  A00 X   1     157.800  49.616  55.7270  0.00  0.00     0.000 C
ATOM      6  O5  A00 X   1     157.487  48.265  55.3190  0.00  0.00     0.000 O
ATOM      7   O  A00 X   1     155.254  51.530  54.8870  0.00  0.00     0.000 O
ATOM      9  HD  A00 X   1     156.108  51.669  54.8650  0.00  0.00     0.000 HD
ATOM      9   O  A00 X   1     158.133  50.139  53.3890  0.00  0.00     0.000 O
ATOM     11  HD  A00 X   1     158.987  50.278  53.3670  0.00  0.00     0.000 HD
ENDROOT
BRANCH 2 11
ATOM     11   O  A00 X   1     154.235  48.609  53.8080  0.00  0.00     0.000 O
ATOM     12   O  A00 X   1     154.960  47.155  52.0400  0.00  0.00     0.000 OA
ATOM     13   O  A00 X   1     155.844  49.418  52.1580  0.00  0.00     0.000 OA
ATOM     14   O  A00 X   1     153.558  49.043  51.6160  0.00  0.00     0.000 OA
ATOM     15   S  A00 X   1     154.712  48.547  52.3160  0.00  0.00     0.000 S
ENDBRANCH 2 11
BRANCH 5 16
ATOM     16   C  A00 X   1     157.187  50.006  57.0750  0.00  0.00     0.000 C
ATOM     17   O  A00 X   1     156.670  51.100  57.1840  0.00  0.00     0.000 OA
ATOM     18   O  A00 X   1     157.193  49.261  58.0340  0.00  0.00     0.000 OA
ENDBRANCH 5 16
BRANCH 1 19
ATOM     19  O4  A00 X   2     155.617  47.224  56.3910  0.00  0.00     0.000 O
BRANCH 19 23
ATOM     20  C1  A00 X   2     157.552  43.522  55.4350  0.00  0.00     0.000 C
ATOM     21  C2  A00 X   2     156.155  43.778  54.8190  0.00  0.00     0.000 C
ATOM     22  C3  A00 X   2     155.791  45.276  54.8880  0.00  0.00     0.000 C
ATOM     23  C4  A00 X   2     155.912  45.799  56.3360  0.00  0.00     0.000 C
ATOM     24  C5  A00 X   2     157.343  45.467  56.8420  0.00  0.00     0.000 C
ATOM     25  O5  A00 X   2     157.532  44.028  56.7960  0.00  0.00     0.000 O
ATOM     26   O  A00 X   2     154.520  45.471  54.2430  0.00  0.00     0.000 O
ATOM     28  HD  A00 X   2     154.139  44.835  54.6910  0.00  0.00     0.000 HD
BRANCH 21 30
ATOM     28   N  A00 X   2     155.894  42.339  54.9290  0.00  0.00     0.000 N
ATOM     30  HD  A00 X   2     155.293  42.663  54.3970  0.00  0.00     0.000 HD
ATOM     30   O  A00 X   2     154.468  41.723  53.1850  0.00  0.00     0.000 OA
ATOM     31   S  A00 X   2     154.443  41.804  54.6020  0.00  0.00     0.000 S
ATOM     32   O  A00 X   2     154.385  40.546  55.2790  0.00  0.00     0.000 OA
ATOM     33   O  A00 X   2     153.511  42.725  55.1830  0.00  0.00     0.000 OA
ENDBRANCH 21 30
BRANCH 24 34
ATOM     34   C  A00 X   2     157.800  46.086  58.1840  0.00  0.00     0.000 C
ATOM     35   O  A00 X   2     159.189  44.168  60.9500  0.00  0.00     0.000 OA
ATOM     36   O  A00 X   2     157.966  45.074  59.1970  0.00  0.00     0.000 O
ATOM     37   O  A00 X   2     160.065  44.144  58.7530  0.00  0.00     0.000 OA
ATOM     38   S  A00 X   2     159.425  44.927  59.7650  0.00  0.00     0.000 S
ATOM     39   O  A00 X   2     159.911  46.256  59.9830  0.00  0.00     0.000 OA
ENDBRANCH 24 34
BRANCH 20 40
ATOM     40  O4  A00 X   3     158.470  44.295  54.6490  0.00  0.00     0.000 O
BRANCH 40 44
ATOM     41  C1  A00 X   3     161.168  46.267  53.2500  0.00  0.00     0.000 C
ATOM     42  C2  A00 X   3     160.374  45.190  52.4800  0.00  0.00     0.000 C
ATOM     43  C3  A00 X   3     160.326  43.860  53.2750  0.00  0.00     0.000 C
ATOM     44  C4  A00 X   3     159.883  44.005  54.7250  0.00  0.00     0.000 C
ATOM     45  C5  A00 X   3     160.729  45.101  55.4330  0.00  0.00     0.000 C
ATOM     46  O5  A00 X   3     160.755  46.333  54.6430  0.00  0.00     0.000 O
ATOM     47   O  A00 X   3     159.690  42.765  52.6190  0.00  0.00     0.000 O
ATOM     49  HD  A00 X   3     159.389  42.609  53.4160  0.00  0.00     0.000 HD
BRANCH 42 49
ATOM     49   O  A00 X   3     159.049  45.720  52.2570  0.00  0.00     0.000 O
ATOM     50   O  A00 X   3     157.556  45.926  50.3970  0.00  0.00     0.000 OA
ATOM     51   O  A00 X   3     159.854  46.371  50.0690  0.00  0.00     0.000 OA
ATOM     52   O  A00 X   3     158.597  47.862  51.4050  0.00  0.00     0.000 OA
ATOM     53   S  A00 X   3     158.729  46.518  50.9590  0.00  0.00     0.000 S
ENDBRANCH 42 49
BRANCH 45 54
ATOM     54   C  A00 X   3     162.127  44.589  55.7990  0.00  0.00     0.000 C
ATOM     55   O  A00 X   3     162.571  43.581  55.2880  0.00  0.00     0.000 OA
ATOM     56   O  A00 X   3     162.818  45.184  56.6120  0.00  0.00     0.000 OA
ENDBRANCH 45 54
BRANCH 41 57
ATOM     57  O4  A00 X   4     162.593  46.113  53.0670  0.00  0.00     0.000 O
BRANCH 57 61
ATOM     58  C1  A00 X   4     165.872  48.916  52.8770  0.00  0.00     0.000 C
ATOM     59  C2  A00 X   4     165.215  48.634  54.2520  0.00  0.00     0.000 C
ATOM     60  C3  A00 X   4     164.321  47.378  54.2610  0.00  0.00     0.000 C
ATOM     61  C4  A00 X   4     163.353  47.355  53.0580  0.00  0.00     0.000 C
ATOM     62  C5  A00 X   4     164.235  47.434  51.7870  0.00  0.00     0.000 C
ATOM     63  O5  A00 X   4     164.953  48.695  51.7830  0.00  0.00     0.000 O
BRANCH 59 66
ATOM     64   N  A00 X   4     165.660  48.601  55.6570  0.00  0.00     0.000 N
ATOM     66  HD  A00 X   4     165.049  48.545  56.2690  0.00  0.00     0.000 HD
ATOM     66   O  A00 X   4     166.290  50.912  55.4090  0.00  0.00     0.000 OA
ATOM     67   S  A00 X   4     166.644  49.753  56.1680  0.00  0.00     0.000 S
ATOM     68   O  A00 X   4     166.294  49.796  57.5570  0.00  0.00     0.000 OA
ATOM     69   O  A00 X   4     167.914  49.140  55.9000  0.00  0.00     0.000 OA
ENDBRANCH 59 66
BRANCH 62 70
ATOM     70   C  A00 X   4     163.446  47.313  50.4620  0.00  0.00     0.000 C
ATOM     71   O  A00 X   4     164.587  46.076  47.2560  0.00  0.00     0.000 OA
ATOM     72   O  A00 X   4     163.428  48.048  47.8160  0.00  0.00     0.000 OA
ATOM     73   O  A00 X   4     164.214  46.545  49.5210  0.00  0.00     0.000 O
ATOM     74   O  A00 X   4     165.810  47.874  48.3000  0.00  0.00     0.000 OA
ATOM     75   S  A00 X   4     164.558  47.207  48.1420  0.00  0.00     0.000 S
ENDBRANCH 62 70
ENDBRANCH 57 61
ENDBRANCH 41 57
ENDBRANCH 40 44
ENDBRANCH 20 40
ENDBRANCH 19 23
ENDBRANCH 1 19
TORSDOF 14
ENDMDL
MODEL 17
REMARK VINA RESULT:      -0.4     12.831     16.911
ROOT
ATOM      1  C1  A00 X   1     154.403  57.565  50.3940  0.00  0.00     0.000 C
ATOM      2  C2  A00 X   1     154.884  57.675  48.9230  0.00  0.00     0.000 C
ATOM      3  C3  A00 X   1     154.110  56.803  47.8800  0.00  0.00     0.000 C
ATOM      4  C4  A00 X   1     153.222  55.680  48.4750  0.00  0.00     0.000 C
ATOM      5  C5  A00 X   1     153.668  55.275  49.8800  0.00  0.00     0.000 C
ATOM      6  O5  A00 X   1     153.498  56.469  50.6770  0.00  0.00     0.000 O
ATOM      7   O  A00 X   1     155.056  56.162  47.0270  0.00  0.00     0.000 O
ATOM      9  HD  A00 X   1     154.442  55.580  47.2100  0.00  0.00     0.000 HD
ATOM      9   O  A00 X   1     151.846  56.059  48.4950  0.00  0.00     0.000 O
ATOM     11  HD  A00 X   1     151.232  55.476  48.6780  0.00  0.00     0.000 HD
ENDROOT
BRANCH 2 11
ATOM     11   O  A00 X   1     154.796  59.060  48.5350  0.00  0.00     0.000 O
ATOM     12   O  A00 X   1     155.722  59.861  46.4690  0.00  0.00     0.000 OA
ATOM     13   O  A00 X   1     157.209  58.961  48.1700  0.00  0.00     0.000 OA
ATOM     14   O  A00 X   1     156.069  61.017  48.5320  0.00  0.00     0.000 OA
ATOM     15   S  A00 X   1     156.041  59.741  47.8690  0.00  0.00     0.000 S
ENDBRANCH 2 11
BRANCH 5 16
ATOM     16   C  A00 X   1     155.075  54.676  49.9660  0.00  0.00     0.000 C
ATOM     17   O  A00 X   1     155.600  54.278  48.9470  0.00  0.00     0.000 OA
ATOM     18   O  A00 X   1     155.685  54.592  51.0130  0.00  0.00     0.000 OA
ENDBRANCH 5 16
BRANCH 1 19
ATOM     19  O4  A00 X   2     155.494  57.608  51.3460  0.00  0.00     0.000 O
BRANCH 19 23
ATOM     20  C1  A00 X   2     153.254  59.485  54.4800  0.00  0.00     0.000 C
ATOM     21  C2  A00 X   2     153.889  60.403  53.4070  0.00  0.00     0.000 C
ATOM     22  C3  A00 X   2     154.272  59.594  52.1500  0.00  0.00     0.000 C
ATOM     23  C4  A00 X   2     155.175  58.398  52.5270  0.00  0.00     0.000 C
ATOM     24  C5  A00 X   2     154.438  57.572  53.6170  0.00  0.00     0.000 C
ATOM     25  O5  A00 X   2     154.203  58.424  54.7690  0.00  0.00     0.000 O
ATOM     26   O  A00 X   2     154.791  60.499  51.1600  0.00  0.00     0.000 O
ATOM     28  HD  A00 X   2     155.345  60.867  51.7150  0.00  0.00     0.000 HD
BRANCH 21 30
ATOM     28   N  A00 X   2     154.108  61.408  54.4510  0.00  0.00     0.000 N
ATOM     30  HD  A00 X   2     154.200  61.812  53.6900  0.00  0.00     0.000 HD
ATOM     30   O  A00 X   2     153.953  63.522  53.4680  0.00  0.00     0.000 OA
ATOM     31   S  A00 X   2     154.935  62.707  54.0910  0.00  0.00     0.000 S
ATOM     32   O  A00 X   2     155.395  63.178  55.3610  0.00  0.00     0.000 OA
ATOM     33   O  A00 X   2     156.043  62.293  53.2830  0.00  0.00     0.000 OA
ENDBRANCH 21 30
BRANCH 24 34
ATOM     34   C  A00 X   2     155.025  56.194  54.0030  0.00  0.00     0.000 C
ATOM     35   O  A00 X   2     158.402  55.697  55.2710  0.00  0.00     0.000 OA
ATOM     36   O  A00 X   2     156.460  56.254  54.1280  0.00  0.00     0.000 O
ATOM     37   O  A00 X   2     156.823  57.159  56.2540  0.00  0.00     0.000 OA
ATOM     38   S  A00 X   2     157.024  55.924  55.5580  0.00  0.00     0.000 S
ATOM     39   O  A00 X   2     156.304  54.777  56.0230  0.00  0.00     0.000 OA
ENDBRANCH 24 34
BRANCH 20 40
ATOM     40  O4  A00 X   3     152.081  58.928  53.8700  0.00  0.00     0.000 O
BRANCH 40 44
ATOM     41  C1  A00 X   3     149.610  56.377  53.1560  0.00  0.00     0.000 C
ATOM     42  C2  A00 X   3     149.530  57.840  52.6700  0.00  0.00     0.000 C
ATOM     43  C3  A00 X   3     149.734  58.828  53.8470  0.00  0.00     0.000 C
ATOM     44  C4  A00 X   3     150.964  58.549  54.7020  0.00  0.00     0.000 C
ATOM     45  C5  A00 X   3     150.971  57.062  55.1550  0.00  0.00     0.000 C
ATOM     46  O5  A00 X   3     150.765  56.167  54.0150  0.00  0.00     0.000 O
ATOM     47   O  A00 X   3     149.594  60.212  53.5310  0.00  0.00     0.000 O
ATOM     49  HD  A00 X   3     150.262  60.289  54.0770  0.00  0.00     0.000 HD
BRANCH 42 49
ATOM     49   O  A00 X   3     150.548  58.007  51.6580  0.00  0.00     0.000 O
ATOM     50   O  A00 X   3     151.386  59.809  50.3240  0.00  0.00     0.000 OA
ATOM     51   O  A00 X   3     149.052  59.620  50.6500  0.00  0.00     0.000 OA
ATOM     52   O  A00 X   3     150.144  57.979  49.3450  0.00  0.00     0.000 OA
ATOM     53   S  A00 X   3     150.282  58.905  50.4160  0.00  0.00     0.000 S
ENDBRANCH 42 49
BRANCH 45 54
ATOM     54   C  A00 X   3     149.984  56.814  56.3030  0.00  0.00     0.000 C
ATOM     55   O  A00 X   3     150.074  55.819  56.9920  0.00  0.00     0.000 OA
ATOM     56   O  A00 X   3     149.091  57.611  56.5420  0.00  0.00     0.000 OA
ENDBRANCH 45 54
BRANCH 41 57
ATOM     57  O4  A00 X   4     148.360  55.937  53.7330  0.00  0.00     0.000 O
BRANCH 57 61
ATOM     58  C1  A00 X   4     146.771  51.992  54.4730  0.00  0.00     0.000 C
ATOM     59  C2  A00 X   4     147.382  52.779  55.6590  0.00  0.00     0.000 C
ATOM     60  C3  A00 X   4     147.581  54.280  55.3630  0.00  0.00     0.000 C
ATOM     61  C4  A00 X   4     148.272  54.509  54.0020  0.00  0.00     0.000 C
ATOM     62  C5  A00 X   4     147.382  53.818  52.9390  0.00  0.00     0.000 C
ATOM     63  O5  A00 X   4     147.341  52.392  53.2050  0.00  0.00     0.000 O
BRANCH 59 66
ATOM     64   N  A00 X   4     148.722  52.226  55.9290  0.00  0.00     0.000 N
ATOM     66  HD  A00 X   4     149.139  51.850  55.2700  0.00  0.00     0.000 HD
ATOM     66   O  A00 X   4     147.642  50.514  57.2340  0.00  0.00     0.000 OA
ATOM     67   S  A00 X   4     148.889  51.209  57.1520  0.00  0.00     0.000 S
ATOM     68   O  A00 X   4     150.000  50.430  56.6900  0.00  0.00     0.000 OA
ATOM     69   O  A00 X   4     149.213  52.130  58.2040  0.00  0.00     0.000 OA
ENDBRANCH 59 66
BRANCH 62 70
ATOM     70   C  A00 X   4     147.856  54.032  51.4820  0.00  0.00     0.000 C
ATOM     71   O  A00 X   4     150.550  52.381  49.7140  0.00  0.00     0.000 OA
ATOM     72   O  A00 X   4     150.029  54.667  49.9260  0.00  0.00     0.000 OA
ATOM     73   O  A00 X   4     148.786  52.995  51.1270  0.00  0.00     0.000 O
ATOM     74   O  A00 X   4     151.047  53.486  51.7990  0.00  0.00     0.000 OA
ATOM     75   S  A00 X   4     150.213  53.424  50.6410  0.00  0.00     0.000 S
ENDBRANCH 62 70
ENDBRANCH 57 61
ENDBRANCH 41 57
ENDBRANCH 40 44
ENDBRANCH 20 40
ENDBRANCH 19 23
ENDBRANCH 1 19
TORSDOF 14
ENDMDL
MODEL 18
REMARK VINA RESULT:      -0.4    203.262    207.576
ROOT
ATOM      1  C1  A00 X   1      37.311 175.078 162.9340  0.00  0.00     0.000 C
ATOM      2  C2  A00 X   1      37.315 173.736 163.7140  0.00  0.00     0.000 C
ATOM      3  C3  A00 X   1      37.643 173.829 165.2400  0.00  0.00     0.000 C
ATOM      4  C4  A00 X   1      38.276 175.166 165.7080  0.00  0.00     0.000 C
ATOM      5  C5  A00 X   1      38.954 175.916 164.5610  0.00  0.00     0.000 C
ATOM      6  O5  A00 X   1      37.886 176.210 163.6330  0.00  0.00     0.000 O
ATOM      7   O  A00 X   1      38.576 172.803 165.5710  0.00  0.00     0.000 O
ATOM      9  HD  A00 X   1      38.822 173.518 165.9940  0.00  0.00     0.000 HD
ATOM      9   O  A00 X   1      37.309 176.010 166.3320  0.00  0.00     0.000 O
ATOM     11  HD  A00 X   1      37.555 176.725 166.7540  0.00  0.00     0.000 HD
ENDROOT
BRANCH 2 11
ATOM     11   O  A00 X   1      36.019 173.129 163.5480  0.00  0.00     0.000 O
ATOM     12   O  A00 X   1      35.369 171.168 164.7730  0.00  0.00     0.000 OA
ATOM     13   O  A00 X   1      37.210 171.027 163.1890  0.00  0.00     0.000 OA
ATOM     14   O  A00 X   1      34.983 171.365 162.4220  0.00  0.00     0.000 OA
ATOM     15   S  A00 X   1      35.915 171.566 163.5000  0.00  0.00     0.000 S
ENDBRANCH 2 11
BRANCH 5 16
ATOM     16   C  A00 X   1      40.139 175.186 163.9210  0.00  0.00     0.000 C
ATOM     17   O  A00 X   1      40.595 175.617 162.8820  0.00  0.00     0.000 OA
ATOM     18   O  A00 X   1      40.642 174.198 164.4180  0.00  0.00     0.000 OA
ENDBRANCH 5 16
BRANCH 1 19
ATOM     19  O4  A00 X   2      37.855 174.952 161.5970  0.00  0.00     0.000 O
BRANCH 19 23
ATOM     20  C1  A00 X   2      34.979 177.602 159.8450  0.00  0.00     0.000 C
ATOM     21  C2  A00 X   2      34.709 176.082 159.7360  0.00  0.00     0.000 C
ATOM     22  C3  A00 X   2      35.562 175.298 160.7550  0.00  0.00     0.000 C
ATOM     23  C4  A00 X   2      37.057 175.654 160.6010  0.00  0.00     0.000 C
ATOM     24  C5  A00 X   2      37.191 177.198 160.7100  0.00  0.00     0.000 C
ATOM     25  O5  A00 X   2      36.404 177.811 159.6560  0.00  0.00     0.000 O
ATOM     26   O  A00 X   2      35.226 173.903 160.6620  0.00  0.00     0.000 O
ATOM     28  HD  A00 X   2      35.320 173.886 159.8010  0.00  0.00     0.000 HD
BRANCH 21 30
ATOM     28   N  A00 X   2      34.107 176.322 158.4210  0.00  0.00     0.000 N
ATOM     30  HD  A00 X   2      33.863 175.528 158.6670  0.00  0.00     0.000 HD
ATOM     30   O  A00 X   2      32.419 174.740 158.0930  0.00  0.00     0.000 OA
ATOM     31   S  A00 X   2      33.683 175.078 157.5420  0.00  0.00     0.000 S
ATOM     32   O  A00 X   2      33.642 175.601 156.2120  0.00  0.00     0.000 OA
ATOM     33   O  A00 X   2      34.725 174.101 157.6600  0.00  0.00     0.000 OA
ENDBRANCH 21 30
BRANCH 24 34
ATOM     34   C  A00 X   2      38.613 177.797 160.8180  0.00  0.00     0.000 C
ATOM     35   O  A00 X   2      40.084 180.022 158.3390  0.00  0.00     0.000 OA
ATOM     36   O  A00 X   2      39.051 178.335 159.5550  0.00  0.00     0.000 O
ATOM     37   O  A00 X   2      38.026 180.434 159.4290  0.00  0.00     0.000 OA
ATOM     38   S  A00 X   2      39.341 179.881 159.5480  0.00  0.00     0.000 S
ATOM     39   O  A00 X   2      40.073 180.161 160.7470  0.00  0.00     0.000 OA
ENDBRANCH 24 34
BRANCH 20 40
ATOM     40  O4  A00 X   3      34.614 177.966 161.1840  0.00  0.00     0.000 O
BRANCH 40 44
ATOM     41  C1  A00 X   3      35.463 179.805 164.1870  0.00  0.00     0.000 C
ATOM     42  C2  A00 X   3      34.216 178.909 164.0270  0.00  0.00     0.000 C
ATOM     43  C3  A00 X   3      33.433 179.272 162.7390  0.00  0.00     0.000 C
ATOM     44  C4  A00 X   3      34.285 179.341 161.4780  0.00  0.00     0.000 C
ATOM     45  C5  A00 X   3      35.515 180.262 161.7160  0.00  0.00     0.000 C
ATOM     46  O5  A00 X   3      36.217 179.890 162.9460  0.00  0.00     0.000 O
ATOM     47   O  A00 X   3      32.212 178.566 162.5320  0.00  0.00     0.000 O
ATOM     49  HD  A00 X   3      32.478 178.573 161.7080  0.00  0.00     0.000 HD
BRANCH 42 49
ATOM     49   O  A00 X   3      34.679 177.541 163.9960  0.00  0.00     0.000 O
ATOM     50   O  A00 X   3      33.683 175.381 163.7260  0.00  0.00     0.000 OA
ATOM     51   O  A00 X   3      32.589 176.981 165.0800  0.00  0.00     0.000 OA
ATOM     52   O  A00 X   3      34.640 176.081 165.8340  0.00  0.00     0.000 OA
ATOM     53   S  A00 X   3      33.859 176.418 164.6940  0.00  0.00     0.000 S
ENDBRANCH 42 49
BRANCH 45 54
ATOM     54   C  A00 X   3      35.130 181.746 161.6650  0.00  0.00     0.000 C
ATOM     55   O  A00 X   3      35.986 182.606 161.6270  0.00  0.00     0.000 OA
ATOM     56   O  A00 X   3      33.958 182.088 161.6640  0.00  0.00     0.000 OA
ENDBRANCH 45 54
BRANCH 41 57
ATOM     57  O4  A00 X   4      35.128 181.089 164.7600  0.00  0.00     0.000 O
BRANCH 57 61
ATOM     58  C1  A00 X   4      37.268 183.797 167.3530  0.00  0.00     0.000 C
ATOM     59  C2  A00 X   4      37.871 183.469 165.9650  0.00  0.00     0.000 C
ATOM     60  C3  A00 X   4      36.870 182.798 165.0030  0.00  0.00     0.000 C
ATOM     61  C4  A00 X   4      36.117 181.633 165.6800  0.00  0.00     0.000 C
ATOM     62  C5  A00 X   4      35.418 182.231 166.9260  0.00  0.00     0.000 C
ATOM     63  O5  A00 X   4      36.424 182.731 167.8440  0.00  0.00     0.000 O
BRANCH 59 66
ATOM     64   N  A00 X   4      38.981 182.510 166.1100  0.00  0.00     0.000 N
ATOM     66  HD  A00 X   4      38.958 181.970 166.7870  0.00  0.00     0.000 HD
ATOM     66   O  A00 X   4      40.391 184.381 166.6680  0.00  0.00     0.000 OA
ATOM     67   S  A00 X   4      40.478 183.075 166.0920  0.00  0.00     0.000 S
ATOM     68   O  A00 X   4      41.137 182.088 166.8970  0.00  0.00     0.000 OA
ATOM     69   O  A00 X   4      40.767 182.980 164.6900  0.00  0.00     0.000 OA
ENDBRANCH 59 66
BRANCH 62 70
ATOM     70   C  A00 X   4      34.514 181.231 167.6850  0.00  0.00     0.000 C
ATOM     71   O  A00 X   4      35.479 178.319 169.6080  0.00  0.00     0.000 OA
ATOM     72   O  A00 X   4      33.855 178.575 167.9230  0.00  0.00     0.000 OA
ATOM     73   O  A00 X   4      35.330 180.382 168.5080  0.00  0.00     0.000 O
ATOM     74   O  A00 X   4      36.214 178.483 167.3180  0.00  0.00     0.000 OA
ATOM     75   S  A00 X   4      35.229 178.832 168.2910  0.00  0.00     0.000 S
ENDBRANCH 62 70
ENDBRANCH 57 61
ENDBRANCH 41 57
ENDBRANCH 40 44
ENDBRANCH 20 40
ENDBRANCH 19 23
ENDBRANCH 1 19
TORSDOF 14
ENDMDL
MODEL 19
REMARK VINA RESULT:      -0.4    104.502    109.350
ROOT
ATOM      1  C1  A00 X   1     125.379  76.536 161.5990  0.00  0.00     0.000 C
ATOM      2  C2  A00 X   1     125.537  77.596 162.7210  0.00  0.00     0.000 C
ATOM      3  C3  A00 X   1     125.088  77.153 164.1530  0.00  0.00     0.000 C
ATOM      4  C4  A00 X   1     124.214  75.874 164.2140  0.00  0.00     0.000 C
ATOM      5  C5  A00 X   1     123.508  75.594 162.8880  0.00  0.00     0.000 C
ATOM      6  O5  A00 X   1     124.578  75.377 161.9410  0.00  0.00     0.000 O
ATOM      7   O  A00 X   1     124.315  78.201 164.7340  0.00  0.00     0.000 O
ATOM      9  HD  A00 X   1     123.925  77.454 164.9340  0.00  0.00     0.000 HD
ATOM      9   O  A00 X   1     124.982  74.735 164.6020  0.00  0.00     0.000 O
ATOM     11  HD  A00 X   1     124.592  73.989 164.8020  0.00  0.00     0.000 HD
ENDROOT
BRANCH 2 11
ATOM     11   O  A00 X   1     126.924  77.986 162.7630  0.00  0.00     0.000 O
ATOM     12   O  A00 X   1     127.786  79.427 164.4790  0.00  0.00     0.000 OA
ATOM     13   O  A00 X   1     126.122  80.287 162.9280  0.00  0.00     0.000 OA
ATOM     14   O  A00 X   1     128.316  79.764 162.1730  0.00  0.00     0.000 OA
ATOM     15   S  A00 X   1     127.284  79.467 163.1290  0.00  0.00     0.000 S
ENDBRANCH 2 11
BRANCH 5 16
ATOM     16   C  A00 X   1     122.507  76.667 162.4470  0.00  0.00     0.000 C
ATOM     17   O  A00 X   1     122.065  76.621 161.3180  0.00  0.00     0.000 OA
ATOM     18   O  A00 X   1     122.137  77.556 163.1880  0.00  0.00     0.000 OA
ENDBRANCH 5 16
BRANCH 1 19
ATOM     19  O4  A00 X   2     124.962  77.112 160.3370  0.00  0.00     0.000 O
BRANCH 19 23
ATOM     20  C1  A00 X   2     127.488  74.570 157.9880  0.00  0.00     0.000 C
ATOM     21  C2  A00 X   2     128.009  75.991 158.3140  0.00  0.00     0.000 C
ATOM     22  C3  A00 X   2     127.223  76.608 159.4900  0.00  0.00     0.000 C
ATOM     23  C4  A00 X   2     125.704  76.576 159.2050  0.00  0.00     0.000 C
ATOM     24  C5  A00 X   2     125.314  75.109 158.8760  0.00  0.00     0.000 C
ATOM     25  O5  A00 X   2     126.066  74.674 157.7130  0.00  0.00     0.000 O
ATOM     26   O  A00 X   2     127.787  77.894 159.7970  0.00  0.00     0.000 O
ATOM     28  HD  A00 X   2     127.759  78.159 158.9730  0.00  0.00     0.000 HD
BRANCH 21 30
ATOM     28   N  A00 X   2     128.657  76.013 156.9990  0.00  0.00     0.000 N
ATOM     30  HD  A00 X   2     129.009  76.654 157.4630  0.00  0.00     0.000 HD
ATOM     30   O  A00 X   2     130.599  77.301 157.1670  0.00  0.00     0.000 OA
ATOM     31   S  A00 X   2     129.340  77.354 156.5130  0.00  0.00     0.000 S
ATOM     32   O  A00 X   2     129.392  77.211 155.0910  0.00  0.00     0.000 OA
ATOM     33   O  A00 X   2     128.465  78.429 156.8730  0.00  0.00     0.000 OA
ENDBRANCH 21 30
BRANCH 24 34
ATOM     34   C  A00 X   2     123.810  74.763 158.7780  0.00  0.00     0.000 C
ATOM     35   O  A00 X   2     122.184  73.569 155.7460  0.00  0.00     0.000 OA
ATOM     36   O  A00 X   2     123.385  74.664 157.4040  0.00  0.00     0.000 O
ATOM     37   O  A00 X   2     124.061  72.526 156.7380  0.00  0.00     0.000 OA
ATOM     38   S  A00 X   2     122.849  73.251 156.9670  0.00  0.00     0.000 S
ATOM     39   O  A00 X   2     121.995  72.798 158.0240  0.00  0.00     0.000 OA
ENDBRANCH 24 34
BRANCH 20 40
ATOM     40  O4  A00 X   3     127.691  73.800 159.1820  0.00  0.00     0.000 O
BRANCH 40 44
ATOM     41  C1  A00 X   3     126.352  71.386 161.5280  0.00  0.00     0.000 C
ATOM     42  C2  A00 X   3     127.732  72.066 161.6570  0.00  0.00     0.000 C
ATOM     43  C3  A00 X   3     128.539  71.939 160.3390  0.00  0.00     0.000 C
ATOM     44  C4  A00 X   3     127.779  72.361 159.0880  0.00  0.00     0.000 C
ATOM     45  C5  A00 X   3     126.406  71.633 159.0270  0.00  0.00     0.000 C
ATOM     46  O5  A00 X   3     125.685  71.771 160.2940  0.00  0.00     0.000 O
ATOM     47   O  A00 X   3     129.867  72.457 160.3690  0.00  0.00     0.000 O
ATOM     49  HD  A00 X   3     129.663  72.719 159.5690  0.00  0.00     0.000 HD
BRANCH 42 49
ATOM     49   O  A00 X   3     127.493  73.449 161.9970  0.00  0.00     0.000 O
ATOM     50   O  A00 X   3     128.831  75.399 162.3700  0.00  0.00     0.000 OA
ATOM     51   O  A00 X   3     129.560  73.330 163.2500  0.00  0.00     0.000 OA
ATOM     52   O  A00 X   3     127.625  74.327 164.1710  0.00  0.00     0.000 OA
ATOM     53   S  A00 X   3     128.425  74.184 163.0040  0.00  0.00     0.000 S
ENDBRANCH 42 49
BRANCH 45 54
ATOM     54   C  A00 X   3     126.557  70.176 158.5740  0.00  0.00     0.000 C
ATOM     55   O  A00 X   3     125.580  69.511 158.2940  0.00  0.00     0.000 OA
ATOM     56   O  A00 X   3     127.660  69.659 158.4880  0.00  0.00     0.000 OA
ENDBRANCH 45 54
BRANCH 41 57
ATOM     57  O4  A00 X   4     126.440  69.958 161.7280  0.00  0.00     0.000 O
BRANCH 57 61
ATOM     58  C1  A00 X   4     123.728  67.052 163.4130  0.00  0.00     0.000 C
ATOM     59  C2  A00 X   4     123.286  67.835 162.1520  0.00  0.00     0.000 C
ATOM     60  C3  A00 X   4     124.445  68.561 161.4410  0.00  0.00     0.000 C
ATOM     61  C4  A00 X   4     125.315  69.361 162.4340  0.00  0.00     0.000 C
ATOM     62  C5  A00 X   4     125.822  68.344 163.4870  0.00  0.00     0.000 C
ATOM     63  O5  A00 X   4     124.686  67.793 164.2020  0.00  0.00     0.000 O
BRANCH 59 66
ATOM     64   N  A00 X   4     122.325  68.893 162.5120  0.00  0.00     0.000 N
ATOM     66  HD  A00 X   4     122.379  69.228 163.3090  0.00  0.00     0.000 HD
ATOM     66   O  A00 X   4     120.611  67.202 162.5030  0.00  0.00     0.000 OA
ATOM     67   S  A00 X   4     120.766  68.607 162.2940  0.00  0.00     0.000 S
ATOM     68   O  A00 X   4     120.205  69.448 163.3110  0.00  0.00     0.000 OA
ATOM     69   O  A00 X   4     120.601  69.108 160.9600  0.00  0.00     0.000 OA
ENDBRANCH 59 66
BRANCH 62 70
ATOM     70   C  A00 X   4     126.810  68.941 164.5180  0.00  0.00     0.000 C
ATOM     71   O  A00 X   4     126.157  71.338 167.1510  0.00  0.00     0.000 OA
ATOM     72   O  A00 X   4     127.838  71.289 165.5030  0.00  0.00     0.000 OA
ATOM     73   O  A00 X   4     126.073  69.655 165.5230  0.00  0.00     0.000 O
ATOM     74   O  A00 X   4     125.568  71.924 164.8870  0.00  0.00     0.000 OA
ATOM     75   S  A00 X   4     126.419  71.168 165.7490  0.00  0.00     0.000 S
ENDBRANCH 62 70
ENDBRANCH 57 61
ENDBRANCH 41 57
ENDBRANCH 40 44
ENDBRANCH 20 40
ENDBRANCH 19 23
ENDBRANCH 1 19
TORSDOF 14
ENDMDL
MODEL 20
REMARK VINA RESULT:      -0.4    111.774    116.018
ROOT
ATOM      1  C1  A00 X   1     104.164 108.296 144.3030  0.00  0.00     0.000 C
ATOM      2  C2  A00 X   1     103.970 108.500 145.8300  0.00  0.00     0.000 C
ATOM      3  C3  A00 X   1     102.503 108.377 146.3580  0.00  0.00     0.000 C
ATOM      4  C4  A00 X   1     101.395 108.435 145.2750  0.00  0.00     0.000 C
ATOM      5  C5  A00 X   1     101.871 109.131 144.0000  0.00  0.00     0.000 C
ATOM      6  O5  A00 X   1     102.950 108.303 143.5120  0.00  0.00     0.000 O
ATOM      7   O  A00 X   1     102.248 109.454 147.2560  0.00  0.00     0.000 O
ATOM      9  HD  A00 X   1     101.540 109.357 146.7670  0.00  0.00     0.000 HD
ATOM      9   O  A00 X   1     100.904 107.133 144.9600  0.00  0.00     0.000 O
ATOM     11  HD  A00 X   1     100.196 107.036 144.4710  0.00  0.00     0.000 HD
ENDROOT
BRANCH 2 11
ATOM     11   O  A00 X   1     104.796 107.534 146.5090  0.00  0.00     0.000 O
ATOM     12   O  A00 X   1     104.678 107.211 148.8860  0.00  0.00     0.000 OA
ATOM     13   O  A00 X   1     105.432 109.352 148.0120  0.00  0.00     0.000 OA
ATOM     14   O  A00 X   1     106.771 107.404 147.7480  0.00  0.00     0.000 OA
ATOM     15   S  A00 X   1     105.436 107.920 147.8870  0.00  0.00     0.000 S
ENDBRANCH 2 11
BRANCH 5 16
ATOM     16   C  A00 X   1     102.256 110.604 144.1700  0.00  0.00     0.000 C
ATOM     17   O  A00 X   1     102.837 111.161 143.2620  0.00  0.00     0.000 OA
ATOM     18   O  A00 X   1     101.996 111.233 145.1760  0.00  0.00     0.000 OA
ENDBRANCH 5 16
BRANCH 1 19
ATOM     19  O4  A00 X   2     105.166 109.180 143.7420  0.00  0.00     0.000 O
BRANCH 19 23
ATOM     20  C1  A00 X   2     106.770 106.196 141.1170  0.00  0.00     0.000 C
ATOM     21  C2  A00 X   2     107.504 106.437 142.4580  0.00  0.00     0.000 C
ATOM     22  C3  A00 X   2     106.597 107.192 143.4530  0.00  0.00     0.000 C
ATOM     23  C4  A00 X   2     106.061 108.495 142.8200  0.00  0.00     0.000 C
ATOM     24  C5  A00 X   2     105.367 108.122 141.4810  0.00  0.00     0.000 C
ATOM     25  O5  A00 X   2     106.341 107.488 140.6110  0.00  0.00     0.000 O
ATOM     26   O  A00 X   2     107.297 107.330 144.7020  0.00  0.00     0.000 O
ATOM     28  HD  A00 X   2     108.010 107.646 144.3250  0.00  0.00     0.000 HD
BRANCH 21 30
ATOM     28   N  A00 X   2     108.769 106.157 141.7730  0.00  0.00     0.000 N
ATOM     30  HD  A00 X   2     108.929 106.108 142.6230  0.00  0.00     0.000 HD
ATOM     30   O  A00 X   2     110.227 105.172 143.3100  0.00  0.00     0.000 OA
ATOM     31   S  A00 X   2     110.123 106.373 142.5600  0.00  0.00     0.000 S
ATOM     32   O  A00 X   2     111.097 106.524 141.5230  0.00  0.00     0.000 OA
ATOM     33   O  A00 X   2     109.992 107.593 143.3000  0.00  0.00     0.000 OA
ENDBRANCH 21 30
BRANCH 24 34
ATOM     34   C  A00 X   2     104.545 109.216 140.7600  0.00  0.00     0.000 C
ATOM     35   O  A00 X   2     105.360 110.546 137.4700  0.00  0.00     0.000 OA
ATOM     36   O  A00 X   2     105.285 109.787 139.6630  0.00  0.00     0.000 O
ATOM     37   O  A00 X   2     105.023 108.249 137.9210  0.00  0.00     0.000 OA
ATOM     38   S  A00 X   2     104.638 109.589 138.2430  0.00  0.00     0.000 S
ATOM     39   O  A00 X   2     103.240 109.860 138.3930  0.00  0.00     0.000 OA
ENDBRANCH 24 34
BRANCH 20 40
ATOM     40  O4  A00 X   3     105.619 105.403 141.4430  0.00  0.00     0.000 O
BRANCH 40 44
ATOM     41  C1  A00 X   3     102.071 104.824 140.9920  0.00  0.00     0.000 C
ATOM     42  C2  A00 X   3     102.987 103.999 141.9220  0.00  0.00     0.000 C
ATOM     43  C3  A00 X   3     104.251 103.513 141.1680  0.00  0.00     0.000 C
ATOM     44  C4  A00 X   3     104.997 104.605 140.4130  0.00  0.00     0.000 C
ATOM     45  C5  A00 X   3     104.013 105.386 139.4970  0.00  0.00     0.000 C
ATOM     46  O5  A00 X   3     102.831 105.816 140.2460  0.00  0.00     0.000 O
ATOM     47   O  A00 X   3     105.129 102.665 141.9070  0.00  0.00     0.000 O
ATOM     49  HD  A00 X   3     105.737 103.125 141.4950  0.00  0.00     0.000 HD
BRANCH 42 49
ATOM     49   O  A00 X   3     103.331 104.848 143.0390  0.00  0.00     0.000 O
ATOM     50   O  A00 X   3     104.701 104.668 144.9940  0.00  0.00     0.000 OA
ATOM     51   O  A00 X   3     103.371 102.820 144.3590  0.00  0.00     0.000 OA
ATOM     52   O  A00 X   3     102.290 104.770 145.1420  0.00  0.00     0.000 OA
ATOM     53   S  A00 X   3     103.435 104.255 144.4740  0.00  0.00     0.000 S
ENDBRANCH 42 49
BRANCH 45 54
ATOM     54   C  A00 X   3     103.668 104.595 138.2290  0.00  0.00     0.000 C
ATOM     55   O  A00 X   3     103.039 105.112 137.3290  0.00  0.00     0.000 OA
ATOM     56   O  A00 X   3     104.019 103.431 138.1040  0.00  0.00     0.000 OA
ENDBRANCH 45 54
BRANCH 41 57
ATOM     57  O4  A00 X   4     101.245 103.974 140.1650  0.00  0.00     0.000 O
BRANCH 57 61
ATOM     58  C1  A00 X   4      97.239 104.387 138.6080  0.00  0.00     0.000 C
ATOM     59  C2  A00 X   4      98.312 105.419 138.1780  0.00  0.00     0.000 C
ATOM     60  C3  A00 X   4      99.754 104.975 138.4950  0.00  0.00     0.000 C
ATOM     61  C4  A00 X   4      99.889 104.458 139.9430  0.00  0.00     0.000 C
ATOM     62  C5  A00 X   4      98.876 103.295 140.0880  0.00  0.00     0.000 C
ATOM     63  O5  A00 X   4      97.532 103.808 139.9000  0.00  0.00     0.000 O
BRANCH 59 66
ATOM     64   N  A00 X   4      98.133 106.693 138.8970  0.00  0.00     0.000 N
ATOM     66  HD  A00 X   4      97.772 106.660 139.6840  0.00  0.00     0.000 HD
ATOM     66   O  A00 X   4      96.427 107.246 137.2910  0.00  0.00     0.000 OA
ATOM     67   S  A00 X   4      97.374 107.885 138.1490  0.00  0.00     0.000 S
ATOM     68   O  A00 X   4      96.817 108.582 139.2720  0.00  0.00     0.000 OA
ATOM     69   O  A00 X   4      98.489 108.551 137.5380  0.00  0.00     0.000 OA
ENDBRANCH 59 66
BRANCH 62 70
ATOM     70   C  A00 X   4      98.938 102.568 141.4520  0.00  0.00     0.000 C
ATOM     71   O  A00 X   4      97.954 103.790 144.7140  0.00  0.00     0.000 OA
ATOM     72   O  A00 X   4      99.932 102.727 144.0070  0.00  0.00     0.000 OA
ATOM     73   O  A00 X   4      98.219 103.333 142.4320  0.00  0.00     0.000 O
ATOM     74   O  A00 X   4      99.555 105.066 143.4400  0.00  0.00     0.000 OA
ATOM     75   S  A00 X   4      98.990 103.786 143.7200  0.00  0.00     0.000 S
ENDBRANCH 62 70
ENDBRANCH 57 61
ENDBRANCH 41 57
ENDBRANCH 40 44
ENDBRANCH 20 40
ENDBRANCH 19 23
ENDBRANCH 1 19
TORSDOF 14
ENDMDL
MODEL 21
REMARK VINA RESULT:      -0.4     85.432     90.750
ROOT
ATOM      1  C1  A00 X   1      73.928  19.239  59.0160  0.00  0.00     0.000 C
ATOM      2  C2  A00 X   1      75.344  19.820  59.2720  0.00  0.00     0.000 C
ATOM      3  C3  A00 X   1      75.910  20.765  58.1610  0.00  0.00     0.000 C
ATOM      4  C4  A00 X   1      75.170  20.715  56.8000  0.00  0.00     0.000 C
ATOM      5  C5  A00 X   1      74.401  19.408  56.6080  0.00  0.00     0.000 C
ATOM      6  O5  A00 X   1      73.419  19.402  57.6690  0.00  0.00     0.000 O
ATOM      7   O  A00 X   1      77.264  20.403  57.8990  0.00  0.00     0.000 O
ATOM      9  HD  A00 X   1      76.891  20.566  57.1350  0.00  0.00     0.000 HD
ATOM      9   O  A00 X   1      74.283  21.823  56.6470  0.00  0.00     0.000 O
ATOM     11  HD  A00 X   1      73.910  21.987  55.8830  0.00  0.00     0.000 HD
ENDROOT
BRANCH 2 11
ATOM     11   O  A00 X   1      75.304  20.536  60.5220  0.00  0.00     0.000 O
ATOM     12   O  A00 X   1      77.275  21.505  61.4930  0.00  0.00     0.000 OA
ATOM     13   O  A00 X   1      77.136  19.090  61.2420  0.00  0.00     0.000 OA
ATOM     14   O  A00 X   1      75.735  20.222  62.7950  0.00  0.00     0.000 OA
ATOM     15   S  A00 X   1      76.461  20.318  61.5570  0.00  0.00     0.000 S
ENDBRANCH 2 11
BRANCH 5 16
ATOM     16   C  A00 X   1      75.268  18.146  56.5680  0.00  0.00     0.000 C
ATOM     17   O  A00 X   1      74.722  17.063  56.6130  0.00  0.00     0.000 OA
ATOM     18   O  A00 X   1      76.480  18.190  56.4870  0.00  0.00     0.000 OA
ENDBRANCH 5 16
BRANCH 1 19
ATOM     19  O4  A00 X   2      73.792  17.870  59.4700  0.00  0.00     0.000 O
BRANCH 19 23
ATOM     20  C1  A00 X   2      69.754  18.394  60.8070  0.00  0.00     0.000 C
ATOM     21  C2  A00 X   2      70.876  18.477  61.8710  0.00  0.00     0.000 C
ATOM     22  C3  A00 X   2      72.249  18.704  61.2050  0.00  0.00     0.000 C
ATOM     23  C4  A00 X   2      72.518  17.625  60.1320  0.00  0.00     0.000 C
ATOM     24  C5  A00 X   2      71.321  17.630  59.1430  0.00  0.00     0.000 C
ATOM     25  O5  A00 X   2      70.105  17.334  59.8790  0.00  0.00     0.000 O
ATOM     26   O  A00 X   2      73.243  18.842  62.2340  0.00  0.00     0.000 O
ATOM     28  HD  A00 X   2      72.991  18.122  62.6450  0.00  0.00     0.000 HD
BRANCH 21 30
ATOM     28   N  A00 X   2      69.957  17.858  62.8320  0.00  0.00     0.000 N
ATOM     30  HD  A00 X   2      70.607  18.200  63.2910  0.00  0.00     0.000 HD
ATOM     30   O  A00 X   2      70.462  18.686  64.9570  0.00  0.00     0.000 OA
ATOM     31   S  A00 X   2      70.509  17.452  64.2560  0.00  0.00     0.000 S
ATOM     32   O  A00 X   2      69.581  16.464  64.7100  0.00  0.00     0.000 OA
ATOM     33   O  A00 X   2      71.802  16.867  64.0580  0.00  0.00     0.000 OA
ENDBRANCH 21 30
BRANCH 24 34
ATOM     34   C  A00 X   2      71.449  16.801  57.8430  0.00  0.00     0.000 C
ATOM     35   O  A00 X   2      69.298  13.988  56.9960  0.00  0.00     0.000 OA
ATOM     36   O  A00 X   2      70.720  15.561  57.9400  0.00  0.00     0.000 O
ATOM     37   O  A00 X   2      68.500  16.156  57.5050  0.00  0.00     0.000 OA
ATOM     38   S  A00 X   2      69.549  15.389  56.9050  0.00  0.00     0.000 S
ATOM     39   O  A00 X   2      70.057  15.833  55.6420  0.00  0.00     0.000 OA
ENDBRANCH 24 34
BRANCH 20 40
ATOM     40  O4  A00 X   3      69.774  19.656  60.1240  0.00  0.00     0.000 O
BRANCH 40 44
ATOM     41  C1  A00 X   3      69.619  21.445  56.9780  0.00  0.00     0.000 C
ATOM     42  C2  A00 X   3      69.815  22.108  58.3580  0.00  0.00     0.000 C
ATOM     43  C3  A00 X   3      68.740  21.624  59.3640  0.00  0.00     0.000 C
ATOM     44  C4  A00 X   3      68.584  20.110  59.4450  0.00  0.00     0.000 C
ATOM     45  C5  A00 X   3      68.386  19.519  58.0210  0.00  0.00     0.000 C
ATOM     46  O5  A00 X   3      69.416  20.010  57.1030  0.00  0.00     0.000 O
ATOM     47   O  A00 X   3      68.770  22.237  60.6520  0.00  0.00     0.000 O
ATOM     49  HD  A00 X   3      68.582  21.433  60.9150  0.00  0.00     0.000 HD
BRANCH 42 49
ATOM     49   O  A00 X   3      71.147  21.769  58.8050  0.00  0.00     0.000 O
ATOM     50   O  A00 X   3      72.469  22.159  60.7620  0.00  0.00     0.000 OA
ATOM     51   O  A00 X   3      71.149  23.924  59.9070  0.00  0.00     0.000 OA
ATOM     52   O  A00 X   3      73.007  23.192  58.6430  0.00  0.00     0.000 OA
ATOM     53   S  A00 X   3      72.005  22.812  59.5780  0.00  0.00     0.000 S
ENDBRANCH 42 49
BRANCH 45 54
ATOM     54   C  A00 X   3      66.960  19.746  57.5050  0.00  0.00     0.000 C
ATOM     55   O  A00 X   3      66.582  19.218  56.4790  0.00  0.00     0.000 OA
ATOM     56   O  A00 X   3      66.181  20.462  58.1150  0.00  0.00     0.000 OA
ENDBRANCH 45 54
BRANCH 41 57
ATOM     57  O4  A00 X   4      68.601  22.116  56.2030  0.00  0.00     0.000 O
BRANCH 57 61
ATOM     58  C1  A00 X   4      68.117  22.827  51.9720  0.00  0.00     0.000 C
ATOM     59  C2  A00 X   4      68.151  21.363  52.4790  0.00  0.00     0.000 C
ATOM     60  C3  A00 X   4      67.965  21.237  54.0040  0.00  0.00     0.000 C
ATOM     61  C4  A00 X   4      68.875  22.216  54.7760  0.00  0.00     0.000 C
ATOM     62  C5  A00 X   4      68.524  23.634  54.2610  0.00  0.00     0.000 C
ATOM     63  O5  A00 X   4      68.841  23.721  52.8480  0.00  0.00     0.000 O
BRANCH 59 66
ATOM     64   N  A00 X   4      69.458  20.743  52.1950  0.00  0.00     0.000 N
ATOM     66  HD  A00 X   4      70.148  21.264  52.1540  0.00  0.00     0.000 HD
ATOM     66   O  A00 X   4      68.667  20.335  49.9580  0.00  0.00     0.000 OA
ATOM     67   S  A00 X   4      69.584  19.796  50.9120  0.00  0.00     0.000 S
ATOM     68   O  A00 X   4      70.973  19.970  50.5990  0.00  0.00     0.000 OA
ATOM     69   O  A00 X   4      69.268  18.526  51.5020  0.00  0.00     0.000 OA
ENDBRANCH 59 66
BRANCH 62 70
ATOM     70   C  A00 X   4      69.263  24.776  55.0010  0.00  0.00     0.000 C
ATOM     71   O  A00 X   4      72.778  25.634  54.8990  0.00  0.00     0.000 OA
ATOM     72   O  A00 X   4      71.326  25.330  56.7270  0.00  0.00     0.000 OA
ATOM     73   O  A00 X   4      70.595  24.898  54.4770  0.00  0.00     0.000 O
ATOM     74   O  A00 X   4      72.158  23.387  55.5150  0.00  0.00     0.000 OA
ATOM     75   S  A00 X   4      71.793  24.767  55.4800  0.00  0.00     0.000 S
ENDBRANCH 62 70
ENDBRANCH 57 61
ENDBRANCH 41 57
ENDBRANCH 40 44
ENDBRANCH 20 40
ENDBRANCH 19 23
ENDBRANCH 1 19
TORSDOF 14
ENDMDL
MODEL 22
REMARK VINA RESULT:      -0.4    168.899    174.331
ROOT
ATOM      1  C1  A00 X   1      11.231 133.474  64.9840  0.00  0.00     0.000 C
ATOM      2  C2  A00 X   1      12.134 133.995  63.8340  0.00  0.00     0.000 C
ATOM      3  C3  A00 X   1      11.457 134.972  62.8170  0.00  0.00     0.000 C
ATOM      4  C4  A00 X   1       9.907 135.011  62.8580  0.00  0.00     0.000 C
ATOM      5  C5  A00 X   1       9.314 133.741  63.4670  0.00  0.00     0.000 C
ATOM      6  O5  A00 X   1       9.812 133.717  64.8240  0.00  0.00     0.000 O
ATOM      7   O  A00 X   1      11.817 134.578  61.4950  0.00  0.00     0.000 O
ATOM      9  HD  A00 X   1      10.977 134.789  61.4790  0.00  0.00     0.000 HD
ATOM      9   O  A00 X   1       9.433 136.154  63.5700  0.00  0.00     0.000 O
ATOM     11  HD  A00 X   1       8.594 136.366  63.5530  0.00  0.00     0.000 HD
ENDROOT
BRANCH 2 11
ATOM     11   O  A00 X   1      13.269 134.652  64.4310  0.00  0.00     0.000 O
ATOM     12   O  A00 X   1      14.859 135.883  63.1190  0.00  0.00     0.000 OA
ATOM     13   O  A00 X   1      14.633 133.486  62.7740  0.00  0.00     0.000 OA
ATOM     14   O  A00 X   1      15.552 134.331  64.7980  0.00  0.00     0.000 OA
ATOM     15   S  A00 X   1      14.655 134.582  63.7030  0.00  0.00     0.000 S
ENDBRANCH 2 11
BRANCH 5 16
ATOM     16   C  A00 X   1       9.600 132.454  62.6860  0.00  0.00     0.000 C
ATOM     17   O  A00 X   1       9.357 131.388  63.2140  0.00  0.00     0.000 OA
ATOM     18   O  A00 X   1      10.052 132.462  61.5590  0.00  0.00     0.000 OA
ENDBRANCH 5 16
BRANCH 1 19
ATOM     19  O4  A00 X   2      11.496 132.091  65.3220  0.00  0.00     0.000 O
BRANCH 19 23
ATOM     20  C1  A00 X   2      11.043 132.714  69.5380  0.00  0.00     0.000 C
ATOM     21  C2  A00 X   2      12.481 132.710  68.9670  0.00  0.00     0.000 C
ATOM     22  C3  A00 X   2      12.466 132.911  67.4370  0.00  0.00     0.000 C
ATOM     23  C4  A00 X   2      11.549 131.867  66.7600  0.00  0.00     0.000 C
ATOM     24  C5  A00 X   2      10.150 131.959  67.4300  0.00  0.00     0.000 C
ATOM     25  O5  A00 X   2      10.292 131.680  68.8470  0.00  0.00     0.000 O
ATOM     26   O  A00 X   2      13.823 132.968  66.9660  0.00  0.00     0.000 O
ATOM     28  HD  A00 X   2      14.051 132.242  67.3800  0.00  0.00     0.000 HD
BRANCH 21 30
ATOM     28   N  A00 X   2      12.934 132.087  70.2150  0.00  0.00     0.000 N
ATOM     30  HD  A00 X   2      13.641 132.386  69.8120  0.00  0.00     0.000 HD
ATOM     30   O  A00 X   2      15.116 132.808  70.6370  0.00  0.00     0.000 OA
ATOM     31   S  A00 X   2      14.435 131.603  70.3190  0.00  0.00     0.000 S
ATOM     32   O  A00 X   2      14.405 130.632  71.3690  0.00  0.00     0.000 OA
ATOM     33   O  A00 X   2      14.767 130.978  69.0730  0.00  0.00     0.000 OA
ENDBRANCH 21 30
BRANCH 24 34
ATOM     34   C  A00 X   2       8.982 131.180  66.7810  0.00  0.00     0.000 C
ATOM     35   O  A00 X   2       7.215 128.436  68.3950  0.00  0.00     0.000 OA
ATOM     36   O  A00 X   2       8.722 129.949  67.4840  0.00  0.00     0.000 O
ATOM     37   O  A00 X   2       7.445 130.594  69.3350  0.00  0.00     0.000 OA
ATOM     38   S  A00 X   2       7.293 129.835  68.1310  0.00  0.00     0.000 S
ATOM     39   O  A00 X   2       6.366 130.321  67.1530  0.00  0.00     0.000 OA
ENDBRANCH 24 34
BRANCH 20 40
ATOM     40  O4  A00 X   3      10.499 134.001  69.2100  0.00  0.00     0.000 O
BRANCH 40 44
ATOM     41  C1  A00 X   3       7.686 135.910  67.9600  0.00  0.00     0.000 C
ATOM     42  C2  A00 X   3       9.045 136.514  68.3750  0.00  0.00     0.000 C
ATOM     43  C3  A00 X   3       9.461 136.028  69.7870  0.00  0.00     0.000 C
ATOM     44  C4  A00 X   3       9.394 134.518  69.9810  0.00  0.00     0.000 C
ATOM     45  C5  A00 X   3       7.999 133.987  69.5480  0.00  0.00     0.000 C
ATOM     46  O5  A00 X   3       7.643 134.479  68.2160  0.00  0.00     0.000 O
ATOM     47   O  A00 X   3      10.661 136.591  70.3120  0.00  0.00     0.000 O
ATOM     49  HD  A00 X   3      10.778 135.784  70.6050  0.00  0.00     0.000 HD
BRANCH 42 49
ATOM     49   O  A00 X   3      10.008 136.117  67.3750  0.00  0.00     0.000 O
ATOM     50   O  A00 X   3      12.358 136.403  67.0230  0.00  0.00     0.000 OA
ATOM     51   O  A00 X   3      11.092 138.237  67.8110  0.00  0.00     0.000 OA
ATOM     52   O  A00 X   3      10.725 137.480  65.6020  0.00  0.00     0.000 OA
ATOM     53   S  A00 X   3      11.119 137.106  66.9160  0.00  0.00     0.000 S
ENDBRANCH 42 49
BRANCH 45 54
ATOM     54   C  A00 X   3       6.927 134.278  70.6050  0.00  0.00     0.000 C
ATOM     55   O  A00 X   3       5.819 133.791  70.5140  0.00  0.00     0.000 OA
ATOM     56   O  A00 X   3       7.168 135.007  71.5550  0.00  0.00     0.000 OA
ENDBRANCH 45 54
BRANCH 41 57
ATOM     57  O4  A00 X   4       6.579 136.642  68.5320  0.00  0.00     0.000 O
BRANCH 57 61
ATOM     58  C1  A00 X   4       2.595 137.525  67.1210  0.00  0.00     0.000 C
ATOM     59  C2  A00 X   4       2.996 136.043  67.3320  0.00  0.00     0.000 C
ATOM     60  C3  A00 X   4       4.282 135.867  68.1640  0.00  0.00     0.000 C
ATOM     61  C4  A00 X   4       5.418 136.786  67.6650  0.00  0.00     0.000 C
ATOM     62  C5  A00 X   4       4.871 138.233  67.7360  0.00  0.00     0.000 C
ATOM     63  O5  A00 X   4       3.740 138.360  66.8370  0.00  0.00     0.000 O
BRANCH 59 66
ATOM     64   N  A00 X   4       3.276 135.400  66.0350  0.00  0.00     0.000 N
ATOM     66  HD  A00 X   4       3.558 135.906  65.3910  0.00  0.00     0.000 HD
ATOM     66   O  A00 X   4       0.900 135.092  65.7880  0.00  0.00     0.000 OA
ATOM     67   S  A00 X   4       2.133 134.497  65.3750  0.00  0.00     0.000 S
ATOM     68   O  A00 X   4       2.455 134.647  63.9860  0.00  0.00     0.000 OA
ATOM     69   O  A00 X   4       2.474 133.215  65.9240  0.00  0.00     0.000 OA
ENDBRANCH 59 66
BRANCH 62 70
ATOM     70   C  A00 X   4       5.911 139.320  67.3760  0.00  0.00     0.000 C
ATOM     71   O  A00 X   4       7.382 140.063  64.1520  0.00  0.00     0.000 OA
ATOM     72   O  A00 X   4       8.384 139.741  66.2580  0.00  0.00     0.000 OA
ATOM     73   O  A00 X   4       6.021 139.417  65.9470  0.00  0.00     0.000 O
ATOM     74   O  A00 X   4       7.560 137.817  65.0100  0.00  0.00     0.000 OA
ATOM     75   S  A00 X   4       7.437 139.208  65.3050  0.00  0.00     0.000 S
ENDBRANCH 62 70
ENDBRANCH 57 61
ENDBRANCH 41 57
ENDBRANCH 40 44
ENDBRANCH 20 40
ENDBRANCH 19 23
ENDBRANCH 1 19
TORSDOF 14
ENDMDL
MODEL 23
REMARK VINA RESULT:      -0.4    120.089    126.952
ROOT
ATOM      1  C1  A00 X   1      42.853  98.705  71.4190  0.00  0.00     0.000 C
ATOM      2  C2  A00 X   1      42.236  98.921  72.8260  0.00  0.00     0.000 C
ATOM      3  C3  A00 X   1      43.211  99.445  73.9310  0.00  0.00     0.000 C
ATOM      4  C4  A00 X   1      44.721  99.335  73.5970  0.00  0.00     0.000 C
ATOM      5  C5  A00 X   1      45.001  98.272  72.5350  0.00  0.00     0.000 C
ATOM      6  O5  A00 X   1      44.300  98.735  71.3590  0.00  0.00     0.000 O
ATOM      7   O  A00 X   1      43.003  98.688  75.1210  0.00  0.00     0.000 O
ATOM      9  HD  A00 X   1      43.858  98.795  75.0330  0.00  0.00     0.000 HD
ATOM      9   O  A00 X   1      45.255 100.590  73.1770  0.00  0.00     0.000 O
ATOM     11  HD  A00 X   1      46.109 100.698  73.0880  0.00  0.00     0.000 HD
ENDROOT
BRANCH 2 11
ATOM     11   O  A00 X   1      41.141  99.848  72.6880  0.00  0.00     0.000 O
ATOM     12   O  A00 X   1      39.992 100.750  74.5940  0.00  0.00     0.000 OA
ATOM     13   O  A00 X   1      39.884  98.359  74.1610  0.00  0.00     0.000 OA
ATOM     14   O  A00 X   1      38.807  99.898  72.7010  0.00  0.00     0.000 OA
ATOM     15   S  A00 X   1      39.892  99.691  73.6220  0.00  0.00     0.000 S
ENDBRANCH 2 11
BRANCH 5 16
ATOM     16   C  A00 X   1      44.639  96.840  72.9400  0.00  0.00     0.000 C
ATOM     17   O  A00 X   1      44.636  95.977  72.0860  0.00  0.00     0.000 OA
ATOM     18   O  A00 X   1      44.362  96.536  74.0840  0.00  0.00     0.000 OA
ENDBRANCH 5 16
BRANCH 1 19
ATOM     19  O4  A00 X   2      42.321  97.537  70.7460  0.00  0.00     0.000 O
BRANCH 19 23
ATOM     20  C1  A00 X   2      42.201  99.428  66.9020  0.00  0.00     0.000 C
ATOM     21  C2  A00 X   2      40.888  99.388  67.7190  0.00  0.00     0.000 C
ATOM     22  C3  A00 X   2      41.174  99.086  69.2050  0.00  0.00     0.000 C
ATOM     23  C4  A00 X   2      42.009  97.793  69.3460  0.00  0.00     0.000 C
ATOM     24  C5  A00 X   2      43.282  97.952  68.4710  0.00  0.00     0.000 C
ATOM     25  O5  A00 X   2      42.877  98.157  67.0920  0.00  0.00     0.000 O
ATOM     26   O  A00 X   2      39.934  99.127  69.9320  0.00  0.00     0.000 O
ATOM     28  HD  A00 X   2      39.532  98.599  69.3750  0.00  0.00     0.000 HD
BRANCH 21 30
ATOM     28   N  A00 X   2      40.148  99.239  66.4620  0.00  0.00     0.000 N
ATOM     30  HD  A00 X   2      39.572  99.470  67.0660  0.00  0.00     0.000 HD
ATOM     30   O  A00 X   2      38.073 100.283  66.7110  0.00  0.00     0.000 OA
ATOM     31   S  A00 X   2      38.591  98.974  66.5250  0.00  0.00     0.000 S
ATOM     32   O  A00 X   2      38.296  98.383  65.2570  0.00  0.00     0.000 OA
ATOM     33   O  A00 X   2      38.364  98.030  67.5790  0.00  0.00     0.000 OA
ENDBRANCH 21 30
BRANCH 24 34
ATOM     34   C  A00 X   2      44.398  96.891  68.6140  0.00  0.00     0.000 C
ATOM     35   O  A00 X   2      45.480  94.690  65.9230  0.00  0.00     0.000 OA
ATOM     36   O  A00 X   2      44.366  95.948  67.5240  0.00  0.00     0.000 O
ATOM     37   O  A00 X   2      45.449  97.050  65.7680  0.00  0.00     0.000 OA
ATOM     38   S  A00 X   2      45.654  95.921  66.6230  0.00  0.00     0.000 S
ATOM     39   O  A00 X   2      46.774  95.958  67.5150  0.00  0.00     0.000 OA
ENDBRANCH 24 34
BRANCH 20 40
ATOM     40  O4  A00 X   3      42.987 100.480  67.4820  0.00  0.00     0.000 O
BRANCH 40 44
ATOM     41  C1  A00 X   3      46.230 101.594  68.6490  0.00  0.00     0.000 C
ATOM     42  C2  A00 X   3      44.935 102.432  68.7160  0.00  0.00     0.000 C
ATOM     43  C3  A00 X   3      44.226 102.471  67.3380  0.00  0.00     0.000 C
ATOM     44  C4  A00 X   3      44.022 101.106  66.6930  0.00  0.00     0.000 C
ATOM     45  C5  A00 X   3      45.367 100.327  66.6570  0.00  0.00     0.000 C
ATOM     46  O5  A00 X   3      46.005 100.325  67.9750  0.00  0.00     0.000 O
ATOM     47   O  A00 X   3      43.062 103.290  67.2590  0.00  0.00     0.000 O
ATOM     49  HD  A00 X   3      42.773 102.637  66.7690  0.00  0.00     0.000 HD
BRANCH 42 49
ATOM     49   O  A00 X   3      44.094 101.831  69.7260  0.00  0.00     0.000 O
ATOM     50   O  A00 X   3      41.911 102.230  70.6240  0.00  0.00     0.000 OA
ATOM     51   O  A00 X   3      43.319 104.078  70.1840  0.00  0.00     0.000 OA
ATOM     52   O  A00 X   3      43.908 102.604  71.9350  0.00  0.00     0.000 OA
ATOM     53   S  A00 X   3      43.250 102.726  70.6800  0.00  0.00     0.000 S
ENDBRANCH 42 49
BRANCH 45 54
ATOM     54   C  A00 X   3      46.287 100.835  65.5420  0.00  0.00     0.000 C
ATOM     55   O  A00 X   3      47.285 100.216  65.2320  0.00  0.00     0.000 OA
ATOM     56   O  A00 X   3      46.036 101.872  64.9470  0.00  0.00     0.000 OA
ENDBRANCH 45 54
BRANCH 41 57
ATOM     57  O4  A00 X   4      47.333 102.357  68.1100  0.00  0.00     0.000 O
BRANCH 57 61
ATOM     58  C1  A00 X   4      51.586 102.300  68.8480  0.00  0.00     0.000 C
ATOM     59  C2  A00 X   4      50.915 101.024  68.2800  0.00  0.00     0.000 C
ATOM     60  C3  A00 X   4      49.497 101.270  67.7270  0.00  0.00     0.000 C
ATOM     61  C4  A00 X   4      48.629 102.081  68.7130  0.00  0.00     0.000 C
ATOM     62  C5  A00 X   4      49.390 103.404  68.9780  0.00  0.00     0.000 C
ATOM     63  O5  A00 X   4      50.660 103.105  69.6120  0.00  0.00     0.000 O
BRANCH 59 66
ATOM     64   N  A00 X   4      50.739  99.989  69.3150  0.00  0.00     0.000 N
ATOM     66  HD  A00 X   4      50.639 100.254  70.1330  0.00  0.00     0.000 HD
ATOM     66   O  A00 X   4      53.050  99.400  68.9750  0.00  0.00     0.000 OA
ATOM     67   S  A00 X   4      51.818  98.810  69.3970  0.00  0.00     0.000 S
ATOM     68   O  A00 X   4      51.736  98.482  70.7910  0.00  0.00     0.000 OA
ATOM     69   O  A00 X   4      51.205  97.845  68.5290  0.00  0.00     0.000 OA
ENDBRANCH 59 66
BRANCH 62 70
ATOM     70   C  A00 X   4      48.620 104.409  69.8680  0.00  0.00     0.000 C
ATOM     71   O  A00 X   4      47.827 104.163  73.3910  0.00  0.00     0.000 OA
ATOM     72   O  A00 X   4      46.463 104.687  71.5450  0.00  0.00     0.000 OA
ATOM     73   O  A00 X   4      48.756 104.024  71.2450  0.00  0.00     0.000 O
ATOM     74   O  A00 X   4      47.136 102.376  71.9270  0.00  0.00     0.000 OA
ATOM     75   S  A00 X   4      47.446 103.763  72.0660  0.00  0.00     0.000 S
ENDBRANCH 62 70
ENDBRANCH 57 61
ENDBRANCH 41 57
ENDBRANCH 40 44
ENDBRANCH 20 40
ENDBRANCH 19 23
ENDBRANCH 1 19
TORSDOF 14
ENDMDL
MODEL 24
REMARK VINA RESULT:      -0.4    136.306    141.352
ROOT
ATOM      1  C1  A00 X   1      49.366 130.326  58.3890  0.00  0.00     0.000 C
ATOM      2  C2  A00 X   1      50.407 130.157  57.2510  0.00  0.00     0.000 C
ATOM      3  C3  A00 X   1      49.903 130.478  55.8050  0.00  0.00     0.000 C
ATOM      4  C4  A00 X   1      48.364 130.563  55.6370  0.00  0.00     0.000 C
ATOM      5  C5  A00 X   1      47.621 129.804  56.7370  0.00  0.00     0.000 C
ATOM      6  O5  A00 X   1      47.990 130.478  57.9610  0.00  0.00     0.000 O
ATOM      7   O  A00 X   1      50.350 129.448  54.9260  0.00  0.00     0.000 O
ATOM      9  HD  A00 X   1      49.534 129.637  54.7040  0.00  0.00     0.000 HD
ATOM      9   O  A00 X   1      47.917 131.918  55.6000  0.00  0.00     0.000 O
ATOM     11  HD  A00 X   1      47.102 132.107  55.3780  0.00  0.00     0.000 HD
ENDROOT
BRANCH 2 11
ATOM     11   O  A00 X   1      51.531 131.006  57.5550  0.00  0.00     0.000 O
ATOM     12   O  A00 X   1      53.314 131.364  55.9860  0.00  0.00     0.000 OA
ATOM     13   O  A00 X   1      52.945 129.132  56.8810  0.00  0.00     0.000 OA
ATOM     14   O  A00 X   1      53.745 130.876  58.2860  0.00  0.00     0.000 OA
ATOM     15   S  A00 X   1      52.966 130.548  57.1220  0.00  0.00     0.000 S
ENDBRANCH 2 11
BRANCH 5 16
ATOM     16   C  A00 X   1      47.875 128.294  56.7680  0.00  0.00     0.000 C
ATOM     17   O  A00 X   1      47.524 127.665  57.7440  0.00  0.00     0.000 OA
ATOM     18   O  A00 X   1      48.408 127.704  55.8490  0.00  0.00     0.000 OA
ENDBRANCH 5 16
BRANCH 1 19
ATOM     19  O4  A00 X   2      49.491 129.314  59.4180  0.00  0.00     0.000 O
BRANCH 19 23
ATOM     20  C1  A00 X   2      48.759 132.054  62.6300  0.00  0.00     0.000 C
ATOM     21  C2  A00 X   2      50.233 131.704  62.3110  0.00  0.00     0.000 C
ATOM     22  C3  A00 X   2      50.357 131.081  60.9060  0.00  0.00     0.000 C
ATOM     23  C4  A00 X   2      49.408 129.870  60.7620  0.00  0.00     0.000 C
ATOM     24  C5  A00 X   2      47.975 130.344  61.1240  0.00  0.00     0.000 C
ATOM     25  O5  A00 X   2      47.977 130.838  62.4890  0.00  0.00     0.000 O
ATOM     26   O  A00 X   2      51.748 130.838  60.6310  0.00  0.00     0.000 O
ATOM     28  HD  A00 X   2      51.876 130.426  61.3810  0.00  0.00     0.000 HD
BRANCH 21 30
ATOM     28   N  A00 X   2      50.528 131.806  63.7440  0.00  0.00     0.000 N
ATOM     30  HD  A00 X   2      51.288 131.828  63.3290  0.00  0.00     0.000 HD
ATOM     30   O  A00 X   2      52.724 132.567  63.9820  0.00  0.00     0.000 OA
ATOM     31   S  A00 X   2      51.967 131.396  64.2530  0.00  0.00     0.000 S
ATOM     32   O  A00 X   2      51.768 131.113  65.6400  0.00  0.00     0.000 OA
ATOM     33   O  A00 X   2      52.341 130.204  63.5510  0.00  0.00     0.000 OA
ENDBRANCH 21 30
BRANCH 24 34
ATOM     34   C  A00 X   2      46.798 129.382  60.8400  0.00  0.00     0.000 C
ATOM     35   O  A00 X   2      46.566 125.996  62.1590  0.00  0.00     0.000 OA
ATOM     36   O  A00 X   2      47.138 128.024  61.1850  0.00  0.00     0.000 O
ATOM     37   O  A00 X   2      46.841 127.922  63.5030  0.00  0.00     0.000 OA
ATOM     38   S  A00 X   2      46.255 127.379  62.3160  0.00  0.00     0.000 S
ATOM     39   O  A00 X   2      44.899 127.733  62.0230  0.00  0.00     0.000 OA
ENDBRANCH 24 34
BRANCH 20 40
ATOM     40  O4  A00 X   3      48.359 133.000  61.6280  0.00  0.00     0.000 O
BRANCH 40 44
ATOM     41  C1  A00 X   3      45.830 134.042  59.2530  0.00  0.00     0.000 C
ATOM     42  C2  A00 X   3      47.192 134.741  59.4510  0.00  0.00     0.000 C
ATOM     43  C3  A00 X   3      47.443 135.054  60.9490  0.00  0.00     0.000 C
ATOM     44  C4  A00 X   3      47.237 133.871  61.8860  0.00  0.00     0.000 C
ATOM     45  C5  A00 X   3      45.846 133.225  61.6310  0.00  0.00     0.000 C
ATOM     46  O5  A00 X   3      45.648 132.957  60.2050  0.00  0.00     0.000 O
ATOM     47   O  A00 X   3      48.635 135.780  61.2430  0.00  0.00     0.000 O
ATOM     49  HD  A00 X   3      48.660 135.243  61.9220  0.00  0.00     0.000 HD
BRANCH 42 49
ATOM     49   O  A00 X   3      48.203 133.856  58.9200  0.00  0.00     0.000 O
ATOM     50   O  A00 X   3      50.590 133.860  58.7460  0.00  0.00     0.000 OA
ATOM     51   O  A00 X   3      49.412 135.865  58.3180  0.00  0.00     0.000 OA
ATOM     52   O  A00 X   3      49.178 134.073  56.7950  0.00  0.00     0.000 OA
ATOM     53   S  A00 X   3      49.425 134.433  58.1490  0.00  0.00     0.000 S
ENDBRANCH 42 49
BRANCH 45 54
ATOM     54   C  A00 X   3      44.714 134.052  62.2520  0.00  0.00     0.000 C
ATOM     55   O  A00 X   3      43.580 133.619  62.2900  0.00  0.00     0.000 OA
ATOM     56   O  A00 X   3      44.931 135.160  62.7170  0.00  0.00     0.000 OA
ENDBRANCH 45 54
BRANCH 41 57
ATOM     57  O4  A00 X   4      44.740 134.992  59.2310  0.00  0.00     0.000 O
BRANCH 57 61
ATOM     58  C1  A00 X   4      40.984 135.106  57.1060  0.00  0.00     0.000 C
ATOM     59  C2  A00 X   4      41.242 133.940  58.0930  0.00  0.00     0.000 C
ATOM     60  C3  A00 X   4      42.431 134.191  59.0430  0.00  0.00     0.000 C
ATOM     61  C4  A00 X   4      43.678 134.691  58.2830  0.00  0.00     0.000 C
ATOM     62  C5  A00 X   4      43.246 135.978  57.5360  0.00  0.00     0.000 C
ATOM     63  O5  A00 X   4      42.214 135.646  56.5720  0.00  0.00     0.000 O
BRANCH 59 66
ATOM     64   N  A00 X   4      41.584 132.706  57.3620  0.00  0.00     0.000 N
ATOM     66  HD  A00 X   4      41.966 132.792  56.5900  0.00  0.00     0.000 HD
ATOM     66   O  A00 X   4      39.223 132.375  57.0200  0.00  0.00     0.000 OA
ATOM     67   S  A00 X   4      40.432 131.621  57.1300  0.00  0.00     0.000 S
ATOM     68   O  A00 X   4      40.892 131.012  55.9160  0.00  0.00     0.000 OA
ATOM     69   O  A00 X   4      40.611 130.808  58.2990  0.00  0.00     0.000 OA
ENDBRANCH 59 66
BRANCH 62 70
ATOM     70   C  A00 X   4      44.399 136.696  56.7950  0.00  0.00     0.000 C
ATOM     71   O  A00 X   4      46.202 135.628  53.8430  0.00  0.00     0.000 OA
ATOM     72   O  A00 X   4      46.987 136.416  55.9180  0.00  0.00     0.000 OA
ATOM     73   O  A00 X   4      44.642 136.036  55.5420  0.00  0.00     0.000 O
ATOM     74   O  A00 X   4      46.120 134.145  55.7430  0.00  0.00     0.000 OA
ATOM     75   S  A00 X   4      46.086 135.490  55.2680  0.00  0.00     0.000 S
ENDBRANCH 62 70
ENDBRANCH 57 61
ENDBRANCH 41 57
ENDBRANCH 40 44
ENDBRANCH 20 40
ENDBRANCH 19 23
ENDBRANCH 1 19
TORSDOF 14
ENDMDL
MODEL 25
REMARK VINA RESULT:      -0.4     87.056     91.681
ROOT
ATOM      1  C1  A00 X   1      72.428  18.933  68.6900  0.00  0.00     0.000 C
ATOM      2  C2  A00 X   1      72.751  20.270  69.4090  0.00  0.00     0.000 C
ATOM      3  C3  A00 X   1      73.282  21.428  68.5000  0.00  0.00     0.000 C
ATOM      4  C4  A00 X   1      73.764  21.003  67.0890  0.00  0.00     0.000 C
ATOM      5  C5  A00 X   1      74.143  19.523  67.0300  0.00  0.00     0.000 C
ATOM      6  O5  A00 X   1      72.918  18.818  67.3310  0.00  0.00     0.000 O
ATOM      7   O  A00 X   1      74.398  22.038  69.1430  0.00  0.00     0.000 O
ATOM      9  HD  A00 X   1      74.592  21.973  68.3010  0.00  0.00     0.000 HD
ATOM      9   O  A00 X   1      72.781  21.289  66.0940  0.00  0.00     0.000 O
ATOM     11  HD  A00 X   1      72.975  21.224  65.2530  0.00  0.00     0.000 HD
ENDROOT
BRANCH 2 11
ATOM     11   O  A00 X   1      71.553  20.709  70.0780  0.00  0.00     0.000 O
ATOM     12   O  A00 X   1      71.404  22.861  71.1330  0.00  0.00     0.000 OA
ATOM     13   O  A00 X   1      72.983  21.222  71.9910  0.00  0.00     0.000 OA
ATOM     14   O  A00 X   1      70.641  20.875  72.2210  0.00  0.00     0.000 OA
ATOM     15   S  A00 X   1      71.683  21.481  71.4360  0.00  0.00     0.000 S
ENDBRANCH 2 11
BRANCH 5 16
ATOM     16   C  A00 X   1      75.319  19.120  67.9250  0.00  0.00     0.000 C
ATOM     17   O  A00 X   1      75.545  17.939  68.0910  0.00  0.00     0.000 OA
ATOM     18   O  A00 X   1      76.036  19.937  68.4670  0.00  0.00     0.000 OA
ENDBRANCH 5 16
BRANCH 1 19
ATOM     19  O4  A00 X   2      72.782  17.771  69.4800  0.00  0.00     0.000 O
BRANCH 19 23
ATOM     20  C1  A00 X   2      69.287  15.561  68.3530  0.00  0.00     0.000 C
ATOM     21  C2  A00 X   2      69.258  16.299  69.7130  0.00  0.00     0.000 C
ATOM     22  C3  A00 X   2      70.366  17.371  69.7800  0.00  0.00     0.000 C
ATOM     23  C4  A00 X   2      71.745  16.748  69.4650  0.00  0.00     0.000 C
ATOM     24  C5  A00 X   2      71.637  16.027  68.0940  0.00  0.00     0.000 C
ATOM     25  O5  A00 X   2      70.616  14.999  68.1860  0.00  0.00     0.000 O
ATOM     26   O  A00 X   2      70.253  18.073  71.0300  0.00  0.00     0.000 O
ATOM     28  HD  A00 X   2      70.225  17.343  71.4950  0.00  0.00     0.000 HD
BRANCH 21 30
ATOM     28   N  A00 X   2      68.433  15.207  70.2370  0.00  0.00     0.000 N
ATOM     30  HD  A00 X   2      68.366  15.862  70.7990  0.00  0.00     0.000 HD
ATOM     30   O  A00 X   2      67.007  16.088  71.8650  0.00  0.00     0.000 OA
ATOM     31   S  A00 X   2      68.098  15.183  71.7820  0.00  0.00     0.000 S
ATOM     32   O  A00 X   2      67.768  13.814  72.0350  0.00  0.00     0.000 OA
ATOM     33   O  A00 X   2      69.296  15.543  72.4800  0.00  0.00     0.000 OA
ENDBRANCH 21 30
BRANCH 24 34
ATOM     34   C  A00 X   2      72.942  15.515  67.4390  0.00  0.00     0.000 C
ATOM     35   O  A00 X   2      73.623  12.013  66.7100  0.00  0.00     0.000 OA
ATOM     36   O  A00 X   2      73.082  14.089  67.5970  0.00  0.00     0.000 O
ATOM     37   O  A00 X   2      71.723  13.182  65.9230  0.00  0.00     0.000 OA
ATOM     38   S  A00 X   2      73.112  13.266  66.2580  0.00  0.00     0.000 S
ATOM     39   O  A00 X   2      73.969  13.982  65.3610  0.00  0.00     0.000 OA
ENDBRANCH 24 34
BRANCH 20 40
ATOM     40  O4  A00 X   3      69.065  16.571  67.3580  0.00  0.00     0.000 O
BRANCH 40 44
ATOM     41  C1  A00 X   3      70.013  17.974  64.1560  0.00  0.00     0.000 C
ATOM     42  C2  A00 X   3      68.920  18.551  65.0810  0.00  0.00     0.000 C
ATOM     43  C3  A00 X   3      67.915  17.450  65.5070  0.00  0.00     0.000 C
ATOM     44  C4  A00 X   3      68.559  16.186  66.0620  0.00  0.00     0.000 C
ATOM     45  C5  A00 X   3      69.642  15.664  65.0750  0.00  0.00     0.000 C
ATOM     46  O5  A00 X   3      70.561  16.737  64.6920  0.00  0.00     0.000 O
ATOM     47   O  A00 X   3      66.810  17.887  66.2950  0.00  0.00     0.000 O
ATOM     49  HD  A00 X   3      66.953  17.140  66.7080  0.00  0.00     0.000 HD
BRANCH 42 49
ATOM     49   O  A00 X   3      69.592  19.125  66.2230  0.00  0.00     0.000 O
ATOM     50   O  A00 X   3      68.936  20.203  68.2570  0.00  0.00     0.000 OA
ATOM     51   O  A00 X   3      67.797  20.748  66.2590  0.00  0.00     0.000 OA
ATOM     52   O  A00 X   3      70.054  21.412  66.4860  0.00  0.00     0.000 OA
ATOM     53   S  A00 X   3      69.075  20.449  66.8560  0.00  0.00     0.000 S
ENDBRANCH 42 49
BRANCH 45 54
ATOM     54   C  A00 X   3      69.016  14.947  63.8730  0.00  0.00     0.000 C
ATOM     55   O  A00 X   3      69.708  14.316  63.1000  0.00  0.00     0.000 OA
ATOM     56   O  A00 X   3      67.813  14.999  63.6710  0.00  0.00     0.000 OA
ENDBRANCH 45 54
BRANCH 41 57
ATOM     57  O4  A00 X   4      69.556  17.869  62.7890  0.00  0.00     0.000 O
BRANCH 57 61
ATOM     58  C1  A00 X   4      71.560  18.242  58.9830  0.00  0.00     0.000 C
ATOM     59  C2  A00 X   4      72.013  17.122  59.9530  0.00  0.00     0.000 C
ATOM     60  C3  A00 X   4      71.013  16.857  61.0960  0.00  0.00     0.000 C
ATOM     61  C4  A00 X   4      70.559  18.167  61.7770  0.00  0.00     0.000 C
ATOM     62  C5  A00 X   4      69.949  19.050  60.6600  0.00  0.00     0.000 C
ATOM     63  O5  A00 X   4      70.977  19.363  59.6850  0.00  0.00     0.000 O
BRANCH 59 66
ATOM     64   N  A00 X   4      73.275  17.499  60.6170  0.00  0.00     0.000 N
ATOM     66  HD  A00 X   4      73.434  18.343  60.7230  0.00  0.00     0.000 HD
ATOM     66   O  A00 X   4      74.424  16.742  58.6400  0.00  0.00     0.000 OA
ATOM     67   S  A00 X   4      74.641  16.894  60.0450  0.00  0.00     0.000 S
ATOM     68   O  A00 X   4      75.558  17.931  60.4180  0.00  0.00     0.000 OA
ATOM     69   O  A00 X   4      74.743  15.703  60.8390  0.00  0.00     0.000 OA
ENDBRANCH 59 66
BRANCH 62 70
ATOM     70   C  A00 X   4      69.333  20.375  61.1680  0.00  0.00     0.000 C
ATOM     71   O  A00 X   4      71.016  23.281  62.5200  0.00  0.00     0.000 OA
ATOM     72   O  A00 X   4      69.172  22.062  63.3300  0.00  0.00     0.000 OA
ATOM     73   O  A00 X   4      70.380  21.335  61.3810  0.00  0.00     0.000 O
ATOM     74   O  A00 X   4      71.415  21.136  63.5470  0.00  0.00     0.000 OA
ATOM     75   S  A00 X   4      70.518  21.966  62.8100  0.00  0.00     0.000 S
ENDBRANCH 62 70
ENDBRANCH 57 61
ENDBRANCH 41 57
ENDBRANCH 40 44
ENDBRANCH 20 40
ENDBRANCH 19 23
ENDBRANCH 1 19
TORSDOF 14
ENDMDL
MODEL 26
REMARK VINA RESULT:      -0.4    121.308    126.429
ROOT
ATOM      1  C1  A00 X   1     120.922  63.048 183.1880  0.00  0.00     0.000 C
ATOM      2  C2  A00 X   1     120.819  62.761 184.7100  0.00  0.00     0.000 C
ATOM      3  C3  A00 X   1     121.395  61.388 185.1900  0.00  0.00     0.000 C
ATOM      4  C4  A00 X   1     121.654  60.344 184.0730  0.00  0.00     0.000 C
ATOM      5  C5  A00 X   1     120.820  60.619 182.8220  0.00  0.00     0.000 C
ATOM      6  O5  A00 X   1     121.268  61.912 182.3580  0.00  0.00     0.000 O
ATOM      7   O  A00 X   1     120.465  60.793 186.0930  0.00  0.00     0.000 O
ATOM      9  HD  A00 X   1     120.763  60.162 185.5800  0.00  0.00     0.000 HD
ATOM      9   O  A00 X   1     123.037  60.283 183.7270  0.00  0.00     0.000 O
ATOM     11  HD  A00 X   1     123.335  59.651 183.2150  0.00  0.00     0.000 HD
ENDROOT
BRANCH 2 11
ATOM     11   O  A00 X   1     121.501  63.824 185.4030  0.00  0.00     0.000 O
ATOM     12   O  A00 X   1     121.885  63.753 187.7730  0.00  0.00     0.000 OA
ATOM     13   O  A00 X   1     119.602  63.845 186.9390  0.00  0.00     0.000 OA
ATOM     14   O  A00 X   1     121.049  65.716 186.6950  0.00  0.00     0.000 OA
ATOM     15   S  A00 X   1     120.963  64.285 186.8020  0.00  0.00     0.000 S
ENDBRANCH 2 11
BRANCH 5 16
ATOM     16   C  A00 X   1     119.303  60.532 183.0220  0.00  0.00     0.000 C
ATOM     17   O  A00 X   1     118.576  60.940 182.1400  0.00  0.00     0.000 OA
ATOM     18   O  A00 X   1     118.804  60.064 184.0260  0.00  0.00     0.000 OA
ENDBRANCH 5 16
BRANCH 1 19
ATOM     19  O4  A00 X   2     119.763  63.747 182.6700  0.00  0.00     0.000 O
BRANCH 19 23
ATOM     20  C1  A00 X   2     122.060  66.256 180.0630  0.00  0.00     0.000 C
ATOM     21  C2  A00 X   2     121.634  66.845 181.4290  0.00  0.00     0.000 C
ATOM     22  C3  A00 X   2     121.214  65.725 182.4040  0.00  0.00     0.000 C
ATOM     23  C4  A00 X   2     120.123  64.833 181.7680  0.00  0.00     0.000 C
ATOM     24  C5  A00 X   2     120.662  64.323 180.4040  0.00  0.00     0.000 C
ATOM     25  O5  A00 X   2     120.950  65.467 179.5580  0.00  0.00     0.000 O
ATOM     26   O  A00 X   2     120.894  66.316 183.6750  0.00  0.00     0.000 O
ATOM     28  HD  A00 X   2     120.368  66.907 183.3250  0.00  0.00     0.000 HD
BRANCH 21 30
ATOM     28   N  A00 X   2     121.502  68.154 180.7810  0.00  0.00     0.000 N
ATOM     30  HD  A00 X   2     121.517  68.297 181.6350  0.00  0.00     0.000 HD
ATOM     30   O  A00 X   2     122.026  69.801 182.3530  0.00  0.00     0.000 OA
ATOM     31   S  A00 X   2     120.899  69.355 181.6130  0.00  0.00     0.000 S
ATOM     32   O  A00 X   2     120.437  70.264 180.6100  0.00  0.00     0.000 OA
ATOM     33   O  A00 X   2     119.793  68.838 182.3630  0.00  0.00     0.000 OA
ENDBRANCH 21 30
BRANCH 24 34
ATOM     34   C  A00 X   2     119.857  63.226 179.6700  0.00  0.00     0.000 C
ATOM     35   O  A00 X   2     118.292  63.676 176.4130  0.00  0.00     0.000 OA
ATOM     36   O  A00 X   2     119.071  63.783 178.5970  0.00  0.00     0.000 O
ATOM     37   O  A00 X   2     120.590  64.039 176.8370  0.00  0.00     0.000 OA
ATOM     38   S  A00 X   2     119.434  63.260 177.1590  0.00  0.00     0.000 S
ATOM     39   O  A00 X   2     119.600  61.842 177.2730  0.00  0.00     0.000 OA
ENDBRANCH 24 34
BRANCH 20 40
ATOM     40  O4  A00 X   3     123.173  65.395 180.3420  0.00  0.00     0.000 O
BRANCH 40 44
ATOM     41  C1  A00 X   3     124.818  62.217 179.7740  0.00  0.00     0.000 C
ATOM     42  C2  A00 X   3     125.335  63.318 180.7250  0.00  0.00     0.000 C
ATOM     43  C3  A00 X   3     125.390  64.691 180.0070  0.00  0.00     0.000 C
ATOM     44  C4  A00 X   3     124.106  65.080 179.2860  0.00  0.00     0.000 C
ATOM     45  C5  A00 X   3     123.653  63.927 178.3460  0.00  0.00     0.000 C
ATOM     46  O5  A00 X   3     123.626  62.650 179.0620  0.00  0.00     0.000 O
ATOM     47   O  A00 X   3     125.935  65.769 180.7660  0.00  0.00     0.000 O
ATOM     49  HD  A00 X   3     125.302  66.214 180.3770  0.00  0.00     0.000 HD
BRANCH 42 49
ATOM     49   O  A00 X   3     124.442  63.351 181.8600  0.00  0.00     0.000 O
ATOM     50   O  A00 X   3     124.227  64.649 183.8590  0.00  0.00     0.000 OA
ATOM     51   O  A00 X   3     126.383  63.972 183.1640  0.00  0.00     0.000 OA
ATOM     52   O  A00 X   3     124.875  62.320 183.9250  0.00  0.00     0.000 OA
ATOM     53   S  A00 X   3     125.000  63.588 183.2930  0.00  0.00     0.000 S
ENDBRANCH 42 49
BRANCH 45 54
ATOM     54   C  A00 X   3     124.489  63.881 177.0610  0.00  0.00     0.000 C
ATOM     55   O  A00 X   3     124.146  63.189 176.1240  0.00  0.00     0.000 OA
ATOM     56   O  A00 X   3     125.513  64.538 176.9580  0.00  0.00     0.000 OA
ENDBRANCH 45 54
BRANCH 41 57
ATOM     57  O4  A00 X   4     125.868  61.719 178.9130  0.00  0.00     0.000 O
BRANCH 57 61
ATOM     58  C1  A00 X   4     126.664  57.841 177.1920  0.00  0.00     0.000 C
ATOM     59  C2  A00 X   4     125.352  58.569 176.8050  0.00  0.00     0.000 C
ATOM     60  C3  A00 X   4     125.344  60.064 177.1820  0.00  0.00     0.000 C
ATOM     61  C4  A00 X   4     125.813  60.291 178.6350  0.00  0.00     0.000 C
ATOM     62  C5  A00 X   4     127.229  59.671 178.7380  0.00  0.00     0.000 C
ATOM     63  O5  A00 X   4     127.143  58.244 178.4950  0.00  0.00     0.000 O
BRANCH 59 66
ATOM     64   N  A00 X   4     124.206  57.980 177.5210  0.00  0.00     0.000 N
ATOM     66  HD  A00 X   4     124.360  57.613 178.2900  0.00  0.00     0.000 HD
ATOM     66   O  A00 X   4     124.169  56.256 175.8400  0.00  0.00     0.000 OA
ATOM     67   S  A00 X   4     123.287  56.927 176.7430  0.00  0.00     0.000 S
ATOM     68   O  A00 X   4     122.812  56.137 177.8410  0.00  0.00     0.000 OA
ATOM     69   O  A00 X   4     122.304  57.812 176.1850  0.00  0.00     0.000 OA
ENDBRANCH 59 66
BRANCH 62 70
ATOM     70   C  A00 X   4     127.920  59.896 180.1050  0.00  0.00     0.000 C
ATOM     71   O  A00 X   4     127.077  58.476 183.3260  0.00  0.00     0.000 OA
ATOM     72   O  A00 X   4     127.501  60.705 182.6960  0.00  0.00     0.000 OA
ATOM     73   O  A00 X   4     127.411  58.947 181.0560  0.00  0.00     0.000 O
ATOM     74   O  A00 X   4     125.371  59.674 182.1130  0.00  0.00     0.000 OA
ATOM     75   S  A00 X   4     126.765  59.503 182.3720  0.00  0.00     0.000 S
ENDBRANCH 62 70
ENDBRANCH 57 61
ENDBRANCH 41 57
ENDBRANCH 40 44
ENDBRANCH 20 40
ENDBRANCH 19 23
ENDBRANCH 1 19
TORSDOF 14
ENDMDL
MODEL 27
REMARK VINA RESULT:      -0.4     28.706     32.843
ROOT
ATOM      1  C1  A00 X   1     185.681  62.488  64.6340  0.00  0.00     0.000 C
ATOM      2  C2  A00 X   1     185.974  61.696  63.3320  0.00  0.00     0.000 C
ATOM      3  C3  A00 X   1     186.457  60.220  63.5210  0.00  0.00     0.000 C
ATOM      4  C4  A00 X   1     186.932  59.849  64.9490  0.00  0.00     0.000 C
ATOM      5  C5  A00 X   1     187.355  61.078  65.7540  0.00  0.00     0.000 C
ATOM      6  O5  A00 X   1     186.156  61.878  65.8590  0.00  0.00     0.000 O
ATOM      7   O  A00 X   1     187.564  59.986  62.6530  0.00  0.00     0.000 O
ATOM      9  HD  A00 X   1     187.748  59.606  63.4090  0.00  0.00     0.000 HD
ATOM      9   O  A00 X   1     185.928  59.127  65.6620  0.00  0.00     0.000 O
ATOM     11  HD  A00 X   1     186.112  58.747  66.4180  0.00  0.00     0.000 HD
ENDROOT
BRANCH 2 11
ATOM     11   O  A00 X   1     184.773  61.698  62.5370  0.00  0.00     0.000 O
ATOM     12   O  A00 X   1     184.574  60.391  60.5330  0.00  0.00     0.000 OA
ATOM     13   O  A00 X   1     186.213  62.185  60.6250  0.00  0.00     0.000 OA
ATOM     14   O  A00 X   1     183.886  62.678  60.6120  0.00  0.00     0.000 OA
ATOM     15   S  A00 X   1     184.898  61.723  60.9750  0.00  0.00     0.000 S
ENDBRANCH 2 11
BRANCH 5 16
ATOM     16   C  A00 X   1     188.555  61.843  65.1860  0.00  0.00     0.000 C
ATOM     17   O  A00 X   1     188.806  62.944  65.6320  0.00  0.00     0.000 OA
ATOM     18   O  A00 X   1     189.265  61.386  64.3130  0.00  0.00     0.000 OA
ENDBRANCH 5 16
BRANCH 1 19
ATOM     19  O4  A00 X   2     186.080  63.878  64.5470  0.00  0.00     0.000 O
BRANCH 19 23
ATOM     20  C1  A00 X   2     182.646  65.320  66.6660  0.00  0.00     0.000 C
ATOM     21  C2  A00 X   2     182.602  65.365  65.1200  0.00  0.00     0.000 C
ATOM     22  C3  A00 X   2     183.678  64.441  64.5120  0.00  0.00     0.000 C
ATOM     23  C4  A00 X   2     185.073  64.783  65.0830  0.00  0.00     0.000 C
ATOM     24  C5  A00 X   2     184.980  64.722  66.6320  0.00  0.00     0.000 C
ATOM     25  O5  A00 X   2     183.990  65.684  67.0790  0.00  0.00     0.000 O
ATOM     26   O  A00 X   2     183.552  64.465  63.0800  0.00  0.00     0.000 O
ATOM     28  HD  A00 X   2     183.547  65.330  63.0450  0.00  0.00     0.000 HD
BRANCH 21 30
ATOM     28   N  A00 X   2     181.820  66.601  65.2170  0.00  0.00     0.000 N
ATOM     30  HD  A00 X   2     181.731  66.312  64.4050  0.00  0.00     0.000 HD
ATOM     30   O  A00 X   2     180.369  66.690  63.3870  0.00  0.00     0.000 OA
ATOM     31   S  A00 X   2     181.493  67.398  63.8910  0.00  0.00     0.000 S
ATOM     32   O  A00 X   2     181.215  68.723  64.3520  0.00  0.00     0.000 OA
ATOM     33   O  A00 X   2     182.679  67.389  63.0880  0.00  0.00     0.000 OA
ENDBRANCH 21 30
BRANCH 24 34
ATOM     34   C  A00 X   2     186.296  64.799  67.4420  0.00  0.00     0.000 C
ATOM     35   O  A00 X   2     188.664  67.557  67.2290  0.00  0.00     0.000 OA
ATOM     36   O  A00 X   2     187.183  65.799  66.9030  0.00  0.00     0.000 O
ATOM     37   O  A00 X   2     186.375  67.819  67.7610  0.00  0.00     0.000 OA
ATOM     38   S  A00 X   2     187.531  66.984  67.8770  0.00  0.00     0.000 S
ATOM     39   O  A00 X   2     187.796  66.392  69.1540  0.00  0.00     0.000 OA
ENDBRANCH 24 34
BRANCH 20 40
ATOM     40  O4  A00 X   3     182.389  63.954  67.0220  0.00  0.00     0.000 O
BRANCH 40 44
ATOM     41  C1  A00 X   3     183.314  61.113  69.0710  0.00  0.00     0.000 C
ATOM     42  C2  A00 X   3     182.198  61.102  68.0030  0.00  0.00     0.000 C
ATOM     43  C3  A00 X   3     181.225  62.291  68.2060  0.00  0.00     0.000 C
ATOM     44  C4  A00 X   3     181.903  63.648  68.3470  0.00  0.00     0.000 C
ATOM     45  C5  A00 X   3     183.006  63.580  69.4400  0.00  0.00     0.000 C
ATOM     46  O5  A00 X   3     183.895  62.438  69.2160  0.00  0.00     0.000 O
ATOM     47   O  A00 X   3     180.102  62.333  67.3270  0.00  0.00     0.000 O
ATOM     49  HD  A00 X   3     180.265  63.184  67.3410  0.00  0.00     0.000 HD
BRANCH 42 49
ATOM     49   O  A00 X   3     182.846  61.163  66.7140  0.00  0.00     0.000 O
ATOM     50   O  A00 X   3     182.147  61.290  64.4280  0.00  0.00     0.000 OA
ATOM     51   O  A00 X   3     180.986  59.848  65.8980  0.00  0.00     0.000 OA
ATOM     52   O  A00 X   3     183.214  59.311  65.3190  0.00  0.00     0.000 OA
ATOM     53   S  A00 X   3     182.275  60.362  65.5080  0.00  0.00     0.000 S
ENDBRANCH 42 49
BRANCH 45 54
ATOM     54   C  A00 X   3     182.409  63.612  70.8520  0.00  0.00     0.000 C
ATOM     55   O  A00 X   3     183.129  63.654  71.8280  0.00  0.00     0.000 OA
ATOM     56   O  A00 X   3     181.199  63.593  71.0200  0.00  0.00     0.000 OA
ENDBRANCH 45 54
BRANCH 41 57
ATOM     57  O4  A00 X   4     182.868  60.528  70.3150  0.00  0.00     0.000 O
BRANCH 57 61
ATOM     58  C1  A00 X   4     184.876  58.226  73.3660  0.00  0.00     0.000 C
ATOM     59  C2  A00 X   4     185.372  59.665  73.0760  0.00  0.00     0.000 C
ATOM     60  C3  A00 X   4     184.377  60.503  72.2470  0.00  0.00     0.000 C
ATOM     61  C4  A00 X   4     183.863  59.728  71.0140  0.00  0.00     0.000 C
ATOM     62  C5  A00 X   4     183.222  58.426  71.5540  0.00  0.00     0.000 C
ATOM     63  O5  A00 X   4     184.240  57.630  72.2120  0.00  0.00     0.000 O
BRANCH 59 66
ATOM     64   N  A00 X   4     186.611  59.622  72.2790  0.00  0.00     0.000 N
ATOM     66  HD  A00 X   4     186.731  58.937  71.7630  0.00  0.00     0.000 HD
ATOM     66   O  A00 X   4     187.804  59.251  74.3370  0.00  0.00     0.000 OA
ATOM     67   S  A00 X   4     188.007  59.810  73.0370  0.00  0.00     0.000 S
ATOM     68   O  A00 X   4     188.873  59.062  72.1730  0.00  0.00     0.000 OA
ATOM     69   O  A00 X   4     188.160  61.233  72.9360  0.00  0.00     0.000 OA
ENDBRANCH 59 66
BRANCH 62 70
ATOM     70   C  A00 X   4     182.545  57.557  70.4670  0.00  0.00     0.000 C
ATOM     71   O  A00 X   4     184.095  55.633  67.8210  0.00  0.00     0.000 OA
ATOM     72   O  A00 X   4     182.317  57.175  67.7570  0.00  0.00     0.000 OA
ATOM     73   O  A00 X   4     183.546  56.783  69.7870  0.00  0.00     0.000 O
ATOM     74   O  A00 X   4     184.604  57.984  67.9860  0.00  0.00     0.000 OA
ATOM     75   S  A00 X   4     183.663  56.939  68.2310  0.00  0.00     0.000 S
ENDBRANCH 62 70
ENDBRANCH 57 61
ENDBRANCH 41 57
ENDBRANCH 40 44
ENDBRANCH 20 40
ENDBRANCH 19 23
ENDBRANCH 1 19
TORSDOF 14
ENDMDL
MODEL 28
REMARK VINA RESULT:      -0.4    103.444    108.474
ROOT
ATOM      1  C1  A00 X   1     160.885  66.219 165.6040  0.00  0.00     0.000 C
ATOM      2  C2  A00 X   1     160.086  66.284 164.2760  0.00  0.00     0.000 C
ATOM      3  C3  A00 X   1     159.871  67.711 163.6720  0.00  0.00     0.000 C
ATOM      4  C4  A00 X   1     160.150  68.894 164.6350  0.00  0.00     0.000 C
ATOM      5  C5  A00 X   1     160.050  68.478 166.1030  0.00  0.00     0.000 C
ATOM      6  O5  A00 X   1     161.089  67.488 166.2750  0.00  0.00     0.000 O
ATOM      7   O  A00 X   1     158.511  67.835 163.2620  0.00  0.00     0.000 O
ATOM      9  HD  A00 X   1     158.733  68.582 163.6390  0.00  0.00     0.000 HD
ATOM      9   O  A00 X   1     161.427  69.480 164.3860  0.00  0.00     0.000 O
ATOM     11  HD  A00 X   1     161.649  70.228 164.7620  0.00  0.00     0.000 HD
ENDROOT
BRANCH 2 11
ATOM     11   O  A00 X   1     160.773  65.465 163.3100  0.00  0.00     0.000 O
ATOM     12   O  A00 X   1     159.887  65.078 161.1120  0.00  0.00     0.000 OA
ATOM     13   O  A00 X   1     158.665  64.259 163.0490  0.00  0.00     0.000 OA
ATOM     14   O  A00 X   1     160.755  63.295 162.4460  0.00  0.00     0.000 OA
ATOM     15   S  A00 X   1     159.939  64.479 162.4210  0.00  0.00     0.000 S
ENDBRANCH 2 11
BRANCH 5 16
ATOM     16   C  A00 X   1     158.665  67.998 166.5480  0.00  0.00     0.000 C
ATOM     17   O  A00 X   1     158.555  67.470 167.6350  0.00  0.00     0.000 OA
ATOM     18   O  A00 X   1     157.676  68.132 165.8560  0.00  0.00     0.000 OA
ENDBRANCH 5 16
BRANCH 1 19
ATOM     19  O4  A00 X   2     160.377  65.215 166.5160  0.00  0.00     0.000 O
BRANCH 19 23
ATOM     20  C1  A00 X   2     164.264  64.107 167.9410  0.00  0.00     0.000 C
ATOM     21  C2  A00 X   2     163.623  63.217 166.8480  0.00  0.00     0.000 C
ATOM     22  C3  A00 X   2     162.468  63.959 166.1440  0.00  0.00     0.000 C
ATOM     23  C4  A00 X   2     161.441  64.472 167.1780  0.00  0.00     0.000 C
ATOM     24  C5  A00 X   2     162.207  65.330 168.2230  0.00  0.00     0.000 C
ATOM     25  O5  A00 X   2     163.212  64.500 168.8620  0.00  0.00     0.000 O
ATOM     26   O  A00 X   2     161.952  63.120 165.0960  0.00  0.00     0.000 O
ATOM     28  HD  A00 X   2     161.872  62.433 165.6160  0.00  0.00     0.000 HD
BRANCH 21 30
ATOM     28   N  A00 X   2     164.266  62.056 167.4710  0.00  0.00     0.000 N
ATOM     30  HD  A00 X   2     164.014  61.809 166.6800  0.00  0.00     0.000 HD
ATOM     30   O  A00 X   2     164.758  60.509 165.7910  0.00  0.00     0.000 OA
ATOM     31   S  A00 X   2     163.915  60.613 166.9280  0.00  0.00     0.000 S
ATOM     32   O  A00 X   2     164.257  59.750 168.0160  0.00  0.00     0.000 OA
ATOM     33   O  A00 X   2     162.502  60.581 166.6940  0.00  0.00     0.000 OA
ENDBRANCH 21 30
BRANCH 24 34
ATOM     34   C  A00 X   2     161.377  66.150 169.2380  0.00  0.00     0.000 C
ATOM     35   O  A00 X   2     161.452  65.619 172.8390  0.00  0.00     0.000 OA
ATOM     36   O  A00 X   2     161.333  65.500 170.5240  0.00  0.00     0.000 O
ATOM     37   O  A00 X   2     163.370  66.061 171.5280  0.00  0.00     0.000 OA
ATOM     38   S  A00 X   2     161.973  66.314 171.7080  0.00  0.00     0.000 S
ATOM     39   O  A00 X   2     161.519  67.664 171.5630  0.00  0.00     0.000 OA
ENDBRANCH 24 34
BRANCH 20 40
ATOM     40  O4  A00 X   3     164.760  65.266 167.2560  0.00  0.00     0.000 O
BRANCH 40 44
ATOM     41  C1  A00 X   3     165.142  68.868 167.1870  0.00  0.00     0.000 C
ATOM     42  C2  A00 X   3     165.632  67.909 166.0800  0.00  0.00     0.000 C
ATOM     43  C3  A00 X   3     166.480  66.758 166.6780  0.00  0.00     0.000 C
ATOM     44  C4  A00 X   3     165.829  66.034 167.8500  0.00  0.00     0.000 C
ATOM     45  C5  A00 X   3     165.368  67.062 168.9210  0.00  0.00     0.000 C
ATOM     46  O5  A00 X   3     164.580  68.135 168.3110  0.00  0.00     0.000 O
ATOM     47   O  A00 X   3     167.060  65.857 165.7370  0.00  0.00     0.000 O
ATOM     49  HD  A00 X   3     166.849  65.271 166.3380  0.00  0.00     0.000 HD
BRANCH 42 49
ATOM     49   O  A00 X   3     164.458  67.405 165.4060  0.00  0.00     0.000 O
ATOM     50   O  A00 X   3     164.007  65.854 163.6400  0.00  0.00     0.000 OA
ATOM     51   O  A00 X   3     165.829  67.342 163.4130  0.00  0.00     0.000 OA
ATOM     52   O  A00 X   3     163.638  68.228 163.3650  0.00  0.00     0.000 OA
ATOM     53   S  A00 X   3     164.469  67.187 163.8650  0.00  0.00     0.000 S
ENDBRANCH 42 49
BRANCH 45 54
ATOM     54   C  A00 X   3     166.545  67.578 169.7560  0.00  0.00     0.000 C
ATOM     55   O  A00 X   3     166.353  68.263 170.7400  0.00  0.00     0.000 OA
ATOM     56   O  A00 X   3     167.696  67.312 169.4460  0.00  0.00     0.000 OA
ENDBRANCH 45 54
BRANCH 41 57
ATOM     57  O4  A00 X   4     166.162  69.821 167.5580  0.00  0.00     0.000 O
BRANCH 57 61
ATOM     58  C1  A00 X   4     166.008  73.937 168.8530  0.00  0.00     0.000 C
ATOM     59  C2  A00 X   4     165.317  72.859 169.7250  0.00  0.00     0.000 C
ATOM     60  C3  A00 X   4     165.737  71.418 169.3690  0.00  0.00     0.000 C
ATOM     61  C4  A00 X   4     165.678  71.164 167.8480  0.00  0.00     0.000 C
ATOM     62  C5  A00 X   4     166.604  72.219 167.1930  0.00  0.00     0.000 C
ATOM     63  O5  A00 X   4     166.081  73.545 167.4630  0.00  0.00     0.000 O
BRANCH 59 66
ATOM     64   N  A00 X   4     163.854  72.885 169.5480  0.00  0.00     0.000 N
ATOM     66  HD  A00 X   4     163.548  73.159 168.7850  0.00  0.00     0.000 HD
ATOM     66   O  A00 X   4     163.798  74.722 171.1030  0.00  0.00     0.000 OA
ATOM     67   S  A00 X   4     162.972  73.651 170.6400  0.00  0.00     0.000 S
ATOM     68   O  A00 X   4     161.849  74.041 169.8380  0.00  0.00     0.000 OA
ATOM     69   O  A00 X   4     162.700  72.574 171.5480  0.00  0.00     0.000 OA
ENDBRANCH 59 66
BRANCH 62 70
ATOM     70   C  A00 X   4     166.765  72.057 165.6630  0.00  0.00     0.000 C
ATOM     71   O  A00 X   4     164.318  72.631 163.0570  0.00  0.00     0.000 OA
ATOM     72   O  A00 X   4     165.744  70.798 163.4460  0.00  0.00     0.000 OA
ATOM     73   O  A00 X   4     165.625  72.628 165.0020  0.00  0.00     0.000 O
ATOM     74   O  A00 X   4     163.768  71.102 164.8390  0.00  0.00     0.000 OA
ATOM     75   S  A00 X   4     164.791  71.704 164.0470  0.00  0.00     0.000 S
ENDBRANCH 62 70
ENDBRANCH 57 61
ENDBRANCH 41 57
ENDBRANCH 40 44
ENDBRANCH 20 40
ENDBRANCH 19 23
ENDBRANCH 1 19
TORSDOF 14
ENDMDL
MODEL 29
REMARK VINA RESULT:      -0.4    169.550    173.924
ROOT
ATOM      1  C1  A00 X   1     129.865 143.244 204.0780  0.00  0.00     0.000 C
ATOM      2  C2  A00 X   1     131.025 144.221 203.7500  0.00  0.00     0.000 C
ATOM      3  C3  A00 X   1     132.360 143.564 203.2660  0.00  0.00     0.000 C
ATOM      4  C4  A00 X   1     132.486 142.040 203.5200  0.00  0.00     0.000 C
ATOM      5  C5  A00 X   1     131.569 141.565 204.6470  0.00  0.00     0.000 C
ATOM      6  O5  A00 X   1     130.232 141.846 204.1760  0.00  0.00     0.000 O
ATOM      7   O  A00 X   1     133.448 144.180 203.9510  0.00  0.00     0.000 O
ATOM      9  HD  A00 X   1     133.613 143.331 203.9220  0.00  0.00     0.000 HD
ATOM      9   O  A00 X   1     132.222 141.290 202.3350  0.00  0.00     0.000 O
ATOM     11  HD  A00 X   1     132.387 140.440 202.3060  0.00  0.00     0.000 HD
ENDROOT
BRANCH 2 11
ATOM     11   O  A00 X   1     130.557 145.134 202.7380  0.00  0.00     0.000 O
ATOM     12   O  A00 X   1     132.026 146.702 201.6660  0.00  0.00     0.000 OA
ATOM     13   O  A00 X   1     131.609 146.903 204.0540  0.00  0.00     0.000 OA
ATOM     14   O  A00 X   1     129.877 147.353 202.4870  0.00  0.00     0.000 OA
ATOM     15   S  A00 X   1     131.081 146.611 202.7500  0.00  0.00     0.000 S
ENDBRANCH 2 11
BRANCH 5 16
ATOM     16   C  A00 X   1     131.872 142.165 206.0240  0.00  0.00     0.000 C
ATOM     17   O  A00 X   1     131.066 142.004 206.9180  0.00  0.00     0.000 OA
ATOM     18   O  A00 X   1     132.889 142.787 206.2550  0.00  0.00     0.000 OA
ENDBRANCH 5 16
BRANCH 1 19
ATOM     19  O4  A00 X   2     129.083 143.666 205.2220  0.00  0.00     0.000 O
BRANCH 19 23
ATOM     20  C1  A00 X   2     125.345 142.486 203.4910  0.00  0.00     0.000 C
ATOM     21  C2  A00 X   2     125.743 143.978 203.3820  0.00  0.00     0.000 C
ATOM     22  C3  A00 X   2     127.252 144.164 203.6450  0.00  0.00     0.000 C
ATOM     23  C4  A00 X   2     127.650 143.533 204.9990  0.00  0.00     0.000 C
ATOM     24  C5  A00 X   2     127.182 142.053 204.9890  0.00  0.00     0.000 C
ATOM     25  O5  A00 X   2     125.742 142.019 204.8070  0.00  0.00     0.000 O
ATOM     26   O  A00 X   2     127.584 145.551 203.4660  0.00  0.00     0.000 O
ATOM     28  HD  A00 X   2     126.942 145.823 203.9790  0.00  0.00     0.000 HD
BRANCH 21 30
ATOM     28   N  A00 X   2     124.325 144.327 203.5100  0.00  0.00     0.000 N
ATOM     30  HD  A00 X   2     124.730 145.031 203.2110  0.00  0.00     0.000 HD
ATOM     30   O  A00 X   2     123.944 146.280 202.2870  0.00  0.00     0.000 OA
ATOM     31   S  A00 X   2     123.928 145.851 203.6400  0.00  0.00     0.000 S
ATOM     32   O  A00 X   2     122.633 145.814 204.2470  0.00  0.00     0.000 OA
ATOM     33   O  A00 X   2     124.875 146.461 204.5260  0.00  0.00     0.000 OA
ENDBRANCH 21 30
BRANCH 24 34
ATOM     34   C  A00 X   2     127.660 141.132 206.1360  0.00  0.00     0.000 C
ATOM     35   O  A00 X   2     125.438 139.563 208.5560  0.00  0.00     0.000 OA
ATOM     36   O  A00 X   2     126.628 140.951 207.1260  0.00  0.00     0.000 O
ATOM     37   O  A00 X   2     125.228 139.315 206.2130  0.00  0.00     0.000 OA
ATOM     38   S  A00 X   2     126.130 139.471 207.3130  0.00  0.00     0.000 S
ATOM     39   O  A00 X   2     127.303 138.648 207.3300  0.00  0.00     0.000 OA
ENDBRANCH 24 34
BRANCH 20 40
ATOM     40  O4  A00 X   3     126.113 141.805 202.4880  0.00  0.00     0.000 O
BRANCH 40 44
ATOM     41  C1  A00 X   3     128.161 138.948 201.6110  0.00  0.00     0.000 C
ATOM     42  C2  A00 X   3     127.833 140.121 200.6610  0.00  0.00     0.000 C
ATOM     43  C3  A00 X   3     126.307 140.393 200.6210  0.00  0.00     0.000 C
ATOM     44  C4  A00 X   3     125.652 140.531 201.9890  0.00  0.00     0.000 C
ATOM     45  C5  A00 X   3     126.023 139.314 202.8820  0.00  0.00     0.000 C
ATOM     46  O5  A00 X   3     127.470 139.089 202.8830  0.00  0.00     0.000 O
ATOM     47   O  A00 X   3     125.878 141.401 199.7080  0.00  0.00     0.000 O
ATOM     49  HD  A00 X   3     125.335 141.596 200.3540  0.00  0.00     0.000 HD
BRANCH 42 49
ATOM     49   O  A00 X   3     128.562 141.272 201.1430  0.00  0.00     0.000 O
ATOM     50   O  A00 X   3     128.763 143.577 200.5290  0.00  0.00     0.000 OA
ATOM     51   O  A00 X   3     128.718 141.940 198.8230  0.00  0.00     0.000 OA
ATOM     52   O  A00 X   3     130.598 142.027 200.2520  0.00  0.00     0.000 OA
ATOM     53   S  A00 X   3     129.202 142.274 200.1390  0.00  0.00     0.000 S
ENDBRANCH 42 49
BRANCH 45 54
ATOM     54   C  A00 X   3     125.218 138.065 202.5040  0.00  0.00     0.000 C
ATOM     55   O  A00 X   3     124.515 138.059 201.5140  0.00  0.00     0.000 OA
ATOM     56   O  A00 X   3     125.269 137.057 203.1910  0.00  0.00     0.000 OA
ENDBRANCH 45 54
BRANCH 41 57
ATOM     57  O4  A00 X   4     127.956 137.669 200.9700  0.00  0.00     0.000 O
BRANCH 57 61
ATOM     58  C1  A00 X   4     129.947 133.854 201.3190  0.00  0.00     0.000 C
ATOM     59  C2  A00 X   4     129.243 134.441 202.5690  0.00  0.00     0.000 C
ATOM     60  C3  A00 X   4     128.279 135.600 202.2440  0.00  0.00     0.000 C
ATOM     61  C4  A00 X   4     128.931 136.644 201.3120  0.00  0.00     0.000 C
ATOM     62  C5  A00 X   4     129.371 135.877 200.0400  0.00  0.00     0.000 C
ATOM     63  O5  A00 X   4     130.369 134.888 200.4000  0.00  0.00     0.000 O
BRANCH 59 66
ATOM     64   N  A00 X   4     130.232 135.008 203.5030  0.00  0.00     0.000 N
ATOM     66  HD  A00 X   4     130.973 135.306 203.1690  0.00  0.00     0.000 HD
ATOM     66   O  A00 X   4     130.601 132.770 204.3130  0.00  0.00     0.000 OA
ATOM     67   S  A00 X   4     130.679 134.126 204.7600  0.00  0.00     0.000 S
ATOM     68   O  A00 X   4     132.004 134.631 204.9730  0.00  0.00     0.000 OA
ATOM     69   O  A00 X   4     129.718 134.566 205.7320  0.00  0.00     0.000 OA
ENDBRANCH 59 66
BRANCH 62 70
ATOM     70   C  A00 X   4     129.955 136.781 198.9280  0.00  0.00     0.000 C
ATOM     71   O  A00 X   4     133.098 138.578 198.8900  0.00  0.00     0.000 OA
ATOM     72   O  A00 X   4     130.912 139.298 198.3890  0.00  0.00     0.000 OA
ATOM     73   O  A00 X   4     131.326 137.084 199.2320  0.00  0.00     0.000 O
ATOM     74   O  A00 X   4     131.568 138.969 200.7130  0.00  0.00     0.000 OA
ATOM     75   S  A00 X   4     131.736 138.593 199.3460  0.00  0.00     0.000 S
ENDBRANCH 62 70
ENDBRANCH 57 61
ENDBRANCH 41 57
ENDBRANCH 40 44
ENDBRANCH 20 40
ENDBRANCH 19 23
ENDBRANCH 1 19
TORSDOF 14
ENDMDL
MODEL 30
REMARK VINA RESULT:      -0.4    193.201    197.690
ROOT
ATOM      1  C1  A00 X   1      31.514 161.656 155.7340  0.00  0.00     0.000 C
ATOM      2  C2  A00 X   1      32.361 160.734 156.6520  0.00  0.00     0.000 C
ATOM      3  C3  A00 X   1      31.564 159.884 157.6960  0.00  0.00     0.000 C
ATOM      4  C4  A00 X   1      30.098 160.327 157.9380  0.00  0.00     0.000 C
ATOM      5  C5  A00 X   1      29.864 161.787 157.5530  0.00  0.00     0.000 C
ATOM      6  O5  A00 X   1      30.133 161.840 156.1340  0.00  0.00     0.000 O
ATOM      7   O  A00 X   1      32.226 159.969 158.9560  0.00  0.00     0.000 O
ATOM      9  HD  A00 X   1      31.375 160.024 159.1100  0.00  0.00     0.000 HD
ATOM      9   O  A00 X   1      29.177 159.490 157.2380  0.00  0.00     0.000 O
ATOM     11  HD  A00 X   1      28.327 159.545 157.3930  0.00  0.00     0.000 HD
ENDROOT
BRANCH 2 11
ATOM     11   O  A00 X   1      33.118 159.848 155.8060  0.00  0.00     0.000 O
ATOM     12   O  A00 X   1      34.405 158.029 156.7000  0.00  0.00     0.000 OA
ATOM     13   O  A00 X   1      35.020 160.313 157.2660  0.00  0.00     0.000 OA
ATOM     14   O  A00 X   1      35.299 159.505 155.0470  0.00  0.00     0.000 OA
ATOM     15   S  A00 X   1      34.546 159.396 156.2670  0.00  0.00     0.000 S
ENDBRANCH 2 11
BRANCH 5 16
ATOM     16   C  A00 X   1      30.665 162.809 158.3670  0.00  0.00     0.000 C
ATOM     17   O  A00 X   1      30.699 163.960 157.9830  0.00  0.00     0.000 OA
ATOM     18   O  A00 X   1      31.260 162.510 159.3830  0.00  0.00     0.000 OA
ENDBRANCH 5 16
BRANCH 1 19
ATOM     19  O4  A00 X   2      32.159 162.924 155.4630  0.00  0.00     0.000 O
BRANCH 19 23
ATOM     20  C1  A00 X   2      30.908 163.036 151.3660  0.00  0.00     0.000 C
ATOM     21  C2  A00 X   2      32.340 162.527 151.6630  0.00  0.00     0.000 C
ATOM     22  C3  A00 X   2      32.488 162.138 153.1480  0.00  0.00     0.000 C
ATOM     23  C4  A00 X   2      32.067 163.310 154.0620  0.00  0.00     0.000 C
ATOM     24  C5  A00 X   2      30.630 163.737 153.6540  0.00  0.00     0.000 C
ATOM     25  O5  A00 X   2      30.642 164.147 152.2620  0.00  0.00     0.000 O
ATOM     26   O  A00 X   2      33.809 161.609 153.3570  0.00  0.00     0.000 O
ATOM     28  HD  A00 X   2      34.194 162.280 152.9680  0.00  0.00     0.000 HD
BRANCH 21 30
ATOM     28   N  A00 X   2      32.778 163.143 150.4060  0.00  0.00     0.000 N
ATOM     30  HD  A00 X   2      33.403 162.594 150.6470  0.00  0.00     0.000 HD
ATOM     30   O  A00 X   2      34.524 161.857 149.5360  0.00  0.00     0.000 OA
ATOM     31   S  A00 X   2      34.322 163.158 150.0670  0.00  0.00     0.000 S
ATOM     32   O  A00 X   2      34.450 164.223 149.1210  0.00  0.00     0.000 OA
ATOM     33   O  A00 X   2      35.018 163.481 151.2770  0.00  0.00     0.000 OA
ENDBRANCH 21 30
BRANCH 24 34
ATOM     34   C  A00 X   2      29.885 164.741 154.5660  0.00  0.00     0.000 C
ATOM     35   O  A00 X   2      28.825 168.060 153.5090  0.00  0.00     0.000 OA
ATOM     36   O  A00 X   2      29.911 166.071 154.0100  0.00  0.00     0.000 O
ATOM     37   O  A00 X   2      28.215 166.062 152.4000  0.00  0.00     0.000 OA
ATOM     38   S  A00 X   2      28.504 166.678 153.6580  0.00  0.00     0.000 S
ATOM     39   O  A00 X   2      27.643 166.372 154.7610  0.00  0.00     0.000 OA
ENDBRANCH 24 34
BRANCH 20 40
ATOM     40  O4  A00 X   3      30.035 161.942 151.6840  0.00  0.00     0.000 O
BRANCH 40 44
ATOM     41  C1  A00 X   3      26.970 160.831 153.2640  0.00  0.00     0.000 C
ATOM     42  C2  A00 X   3      27.988 159.903 152.5680  0.00  0.00     0.000 C
ATOM     43  C3  A00 X   3      28.329 160.419 151.1470  0.00  0.00     0.000 C
ATOM     44  C4  A00 X   3      28.723 161.889 151.0840  0.00  0.00     0.000 C
ATOM     45  C5  A00 X   3      27.650 162.758 151.7990  0.00  0.00     0.000 C
ATOM     46  O5  A00 X   3      27.352 162.229 153.1320  0.00  0.00     0.000 O
ATOM     47   O  A00 X   3      29.197 159.591 150.3750  0.00  0.00     0.000 O
ATOM     49  HD  A00 X   3      29.522 160.354 150.1280  0.00  0.00     0.000 HD
BRANCH 42 49
ATOM     49   O  A00 X   3      29.162 159.856 153.4090  0.00  0.00     0.000 O
ATOM     50   O  A00 X   3      31.324 158.832 153.3100  0.00  0.00     0.000 OA
ATOM     51   O  A00 X   3      29.438 157.585 152.6170  0.00  0.00     0.000 OA
ATOM     52   O  A00 X   3      29.657 158.119 154.9100  0.00  0.00     0.000 OA
ATOM     53   S  A00 X   3      29.954 158.527 153.5800  0.00  0.00     0.000 S
ENDBRANCH 42 49
BRANCH 45 54
ATOM     54   C  A00 X   3      26.400 162.945 150.9310  0.00  0.00     0.000 C
ATOM     55   O  A00 X   3      25.521 163.711 151.2680  0.00  0.00     0.000 OA
ATOM     56   O  A00 X   3      26.266 162.325 149.8870  0.00  0.00     0.000 OA
ENDBRANCH 45 54
BRANCH 41 57
ATOM     57  O4  A00 X   4      25.616 160.550 152.8440  0.00  0.00     0.000 O
BRANCH 57 61
ATOM     58  C1  A00 X   4      21.812 160.720 154.8770  0.00  0.00     0.000 C
ATOM     59  C2  A00 X   4      22.628 162.027 154.7220  0.00  0.00     0.000 C
ATOM     60  C3  A00 X   4      23.767 161.921 153.6870  0.00  0.00     0.000 C
ATOM     61  C4  A00 X   4      24.611 160.645 153.8930  0.00  0.00     0.000 C
ATOM     62  C5  A00 X   4      23.627 159.452 153.8010  0.00  0.00     0.000 C
ATOM     63  O5  A00 X   4      22.659 159.549 154.8780  0.00  0.00     0.000 O
BRANCH 59 66
ATOM     64   N  A00 X   4      23.282 162.364 155.9990  0.00  0.00     0.000 N
ATOM     66  HD  A00 X   4      23.474 161.711 156.5350  0.00  0.00     0.000 HD
ATOM     66   O  A00 X   4      21.196 163.343 156.6950  0.00  0.00     0.000 OA
ATOM     67   S  A00 X   4      22.600 163.470 156.9320  0.00  0.00     0.000 S
ATOM     68   O  A00 X   4      23.050 163.034 158.2210  0.00  0.00     0.000 OA
ATOM     69   O  A00 X   4      23.257 164.650 156.4470  0.00  0.00     0.000 OA
ENDBRANCH 59 66
BRANCH 62 70
ATOM     70   C  A00 X   4      24.307 158.064 153.8740  0.00  0.00     0.000 C
ATOM     71   O  A00 X   4      25.911 156.478 156.7050  0.00  0.00     0.000 OA
ATOM     72   O  A00 X   4      26.651 156.772 154.4890  0.00  0.00     0.000 OA
ATOM     73   O  A00 X   4      24.585 157.743 155.2460  0.00  0.00     0.000 O
ATOM     74   O  A00 X   4      26.671 158.664 156.0260  0.00  0.00     0.000 OA
ATOM     75   S  A00 X   4      26.070 157.428 155.6400  0.00  0.00     0.000 S
ENDBRANCH 62 70
ENDBRANCH 57 61
ENDBRANCH 41 57
ENDBRANCH 40 44
ENDBRANCH 20 40
ENDBRANCH 19 23
ENDBRANCH 1 19
TORSDOF 14
ENDMDL
MODEL 31
REMARK VINA RESULT:      -0.4    182.685    187.221
ROOT
ATOM      1  C1  A00 X   1     207.160 183.992 179.8080  0.00  0.00     0.000 C
ATOM      2  C2  A00 X   1     208.031 185.227 180.1600  0.00  0.00     0.000 C
ATOM      3  C3  A00 X   1     209.059 185.034 181.3240  0.00  0.00     0.000 C
ATOM      4  C4  A00 X   1     208.834 183.785 182.2140  0.00  0.00     0.000 C
ATOM      5  C5  A00 X   1     207.392 183.284 182.1510  0.00  0.00     0.000 C
ATOM      6  O5  A00 X   1     207.192 182.909 180.7700  0.00  0.00     0.000 O
ATOM      7   O  A00 X   1     208.987 186.165 182.1890  0.00  0.00     0.000 O
ATOM      9  HD  A00 X   1     209.057 185.463 182.6920  0.00  0.00     0.000 HD
ATOM      9   O  A00 X   1     209.727 182.728 181.8630  0.00  0.00     0.000 O
ATOM     11  HD  A00 X   1     209.797 182.026 182.3660  0.00  0.00     0.000 HD
ENDROOT
BRANCH 2 11
ATOM     11   O  A00 X   1     208.741 185.618 178.9680  0.00  0.00     0.000 O
ATOM     12   O  A00 X   1     210.447 187.307 179.0020  0.00  0.00     0.000 OA
ATOM     13   O  A00 X   1     208.157 187.918 179.5490  0.00  0.00     0.000 OA
ATOM     14   O  A00 X   1     208.737 187.283 177.3320  0.00  0.00     0.000 OA
ATOM     15   S  A00 X   1     209.042 187.137 178.7290  0.00  0.00     0.000 S
ENDBRANCH 2 11
BRANCH 5 16
ATOM     16   C  A00 X   1     206.341 184.267 182.6770  0.00  0.00     0.000 C
ATOM     17   O  A00 X   1     205.169 184.031 182.4690  0.00  0.00     0.000 OA
ATOM     18   O  A00 X   1     206.638 185.267 183.3000  0.00  0.00     0.000 OA
ENDBRANCH 5 16
BRANCH 1 19
ATOM     19  O4  A00 X   2     205.800 184.346 179.4560  0.00  0.00     0.000 O
BRANCH 19 23
ATOM     20  C1  A00 X   2     205.530 181.442 176.3160  0.00  0.00     0.000 C
ATOM     21  C2  A00 X   2     205.869 182.898 175.9160  0.00  0.00     0.000 C
ATOM     22  C3  A00 X   2     206.352 183.706 177.1380  0.00  0.00     0.000 C
ATOM     23  C4  A00 X   2     205.320 183.625 178.2860  0.00  0.00     0.000 C
ATOM     24  C5  A00 X   2     205.053 182.123 178.5780  0.00  0.00     0.000 C
ATOM     25  O5  A00 X   2     204.537 181.497 177.3750  0.00  0.00     0.000 O
ATOM     26   O  A00 X   2     206.719 185.027 176.7030  0.00  0.00     0.000 O
ATOM     28  HD  A00 X   2     205.975 185.147 176.2760  0.00  0.00     0.000 HD
BRANCH 21 30
ATOM     28   N  A00 X   2     205.105 182.697 174.6810  0.00  0.00     0.000 N
ATOM     30  HD  A00 X   2     205.585 183.408 174.5650  0.00  0.00     0.000 HD
ATOM     30   O  A00 X   2     206.079 183.996 173.0010  0.00  0.00     0.000 OA
ATOM     31   S  A00 X   2     204.861 183.935 173.7290  0.00  0.00     0.000 S
ATOM     32   O  A00 X   2     203.717 183.552 172.9610  0.00  0.00     0.000 OA
ATOM     33   O  A00 X   2     204.547 185.056 174.5640  0.00  0.00     0.000 OA
ENDBRANCH 21 30
BRANCH 24 34
ATOM     34   C  A00 X   2     204.230 181.764 179.8380  0.00  0.00     0.000 C
ATOM     35   O  A00 X   2     201.008 180.070 179.7570  0.00  0.00     0.000 OA
ATOM     36   O  A00 X   2     202.870 181.433 179.4960  0.00  0.00     0.000 O
ATOM     37   O  A00 X   2     202.977 179.213 178.7660  0.00  0.00     0.000 OA
ATOM     38   S  A00 X   2     202.427 179.966 179.8520  0.00  0.00     0.000 S
ATOM     39   O  A00 X   2     202.930 179.699 181.1660  0.00  0.00     0.000 OA
ENDBRANCH 24 34
BRANCH 20 40
ATOM     40  O4  A00 X   3     206.749 180.887 176.8310  0.00  0.00     0.000 O
BRANCH 40 44
ATOM     41  C1  A00 X   3     208.385 178.912 179.3890  0.00  0.00     0.000 C
ATOM     42  C2  A00 X   3     209.109 179.603 178.2140  0.00  0.00     0.000 C
ATOM     43  C3  A00 X   3     208.435 179.252 176.8620  0.00  0.00     0.000 C
ATOM     44  C4  A00 X   3     206.925 179.454 176.8360  0.00  0.00     0.000 C
ATOM     45  C5  A00 X   3     206.270 178.727 178.0430  0.00  0.00     0.000 C
ATOM     46  O5  A00 X   3     206.943 179.079 179.2950  0.00  0.00     0.000 O
ATOM     47   O  A00 X   3     209.074 179.767 175.6950  0.00  0.00     0.000 O
ATOM     49  HD  A00 X   3     208.255 179.888 175.4390  0.00  0.00     0.000 HD
BRANCH 42 49
ATOM     49   O  A00 X   3     209.069 181.024 178.4700  0.00  0.00     0.000 O
ATOM     50   O  A00 X   3     209.789 183.009 177.3410  0.00  0.00     0.000 OA
ATOM     51   O  A00 X   3     211.212 181.121 177.3490  0.00  0.00     0.000 OA
ATOM     52   O  A00 X   3     210.842 182.262 179.3860  0.00  0.00     0.000 OA
ATOM     53   S  A00 X   3     210.292 181.921 178.1190  0.00  0.00     0.000 S
ENDBRANCH 42 49
BRANCH 45 54
ATOM     54   C  A00 X   3     206.179 177.213 177.8120  0.00  0.00     0.000 C
ATOM     55   O  A00 X   3     205.537 176.510 178.5660  0.00  0.00     0.000 OA
ATOM     56   O  A00 X   3     206.750 176.689 176.8690  0.00  0.00     0.000 OA
ENDBRANCH 45 54
BRANCH 41 57
ATOM     57  O4  A00 X   4     208.807 177.538 179.5420  0.00  0.00     0.000 O
BRANCH 57 61
ATOM     58  C1  A00 X   4     209.276 174.974 182.9840  0.00  0.00     0.000 C
ATOM     59  C2  A00 X   4     207.866 175.527 182.6580  0.00  0.00     0.000 C
ATOM     60  C3  A00 X   4     207.750 176.117 181.2380  0.00  0.00     0.000 C
ATOM     61  C4  A00 X   4     208.918 177.075 180.9180  0.00  0.00     0.000 C
ATOM     62  C5  A00 X   4     210.219 176.255 181.1050  0.00  0.00     0.000 C
ATOM     63  O5  A00 X   4     210.325 175.839 182.4910  0.00  0.00     0.000 O
BRANCH 59 66
ATOM     64   N  A00 X   4     207.526 176.634 183.5700  0.00  0.00     0.000 N
ATOM     66  HD  A00 X   4     208.179 177.100 183.8950  0.00  0.00     0.000 HD
ATOM     66   O  A00 X   4     206.890 174.970 185.1910  0.00  0.00     0.000 OA
ATOM     67   S  A00 X   4     206.587 176.318 184.8260  0.00  0.00     0.000 S
ATOM     68   O  A00 X   4     207.038 177.322 185.7450  0.00  0.00     0.000 OA
ATOM     69   O  A00 X   4     205.298 176.583 184.2520  0.00  0.00     0.000 OA
ENDBRANCH 59 66
BRANCH 62 70
ATOM     70   C  A00 X   4     211.508 177.019 180.7210  0.00  0.00     0.000 C
ATOM     71   O  A00 X   4     213.059 179.826 182.4030  0.00  0.00     0.000 OA
ATOM     72   O  A00 X   4     212.523 179.503 180.1330  0.00  0.00     0.000 OA
ATOM     73   O  A00 X   4     211.882 177.892 181.8000  0.00  0.00     0.000 O
ATOM     74   O  A00 X   4     210.753 180.019 181.7260  0.00  0.00     0.000 OA
ATOM     75   S  A00 X   4     212.028 179.422 181.4890  0.00  0.00     0.000 S
ENDBRANCH 62 70
ENDBRANCH 57 61
ENDBRANCH 41 57
ENDBRANCH 40 44
ENDBRANCH 20 40
ENDBRANCH 19 23
ENDBRANCH 1 19
TORSDOF 14
ENDMDL
MODEL 32
REMARK VINA RESULT:      -0.4    185.598    190.360
ROOT
ATOM      1  C1  A00 X   1     190.957 193.074 180.2260  0.00  0.00     0.000 C
ATOM      2  C2  A00 X   1     192.155 192.912 181.1990  0.00  0.00     0.000 C
ATOM      3  C3  A00 X   1     192.110 191.666 182.1430  0.00  0.00     0.000 C
ATOM      4  C4  A00 X   1     190.733 190.961 182.2560  0.00  0.00     0.000 C
ATOM      5  C5  A00 X   1     189.578 191.890 181.8830  0.00  0.00     0.000 C
ATOM      6  O5  A00 X   1     189.812 192.228 180.4970  0.00  0.00     0.000 O
ATOM      7   O  A00 X   1     192.463 192.078 183.4620  0.00  0.00     0.000 O
ATOM      9  HD  A00 X   1     191.803 191.522 183.5360  0.00  0.00     0.000 HD
ATOM      9   O  A00 X   1     190.683 189.782 181.4530  0.00  0.00     0.000 O
ATOM     11  HD  A00 X   1     190.023 189.227 181.5270  0.00  0.00     0.000 HD
ENDROOT
BRANCH 2 11
ATOM     11   O  A00 X   1     193.358 192.859 180.4080  0.00  0.00     0.000 O
ATOM     12   O  A00 X   1     195.493 192.337 181.3770  0.00  0.00     0.000 OA
ATOM     13   O  A00 X   1     194.339 194.366 182.0610  0.00  0.00     0.000 OA
ATOM     14   O  A00 X   1     195.216 194.162 179.8600  0.00  0.00     0.000 OA
ATOM     15   S  A00 X   1     194.679 193.464 180.9960  0.00  0.00     0.000 S
ENDBRANCH 2 11
BRANCH 5 16
ATOM     16   C  A00 X   1     189.409 193.112 182.7920  0.00  0.00     0.000 C
ATOM     17   O  A00 X   1     188.660 193.999 182.4390  0.00  0.00     0.000 OA
ATOM     18   O  A00 X   1     189.991 193.220 183.8530  0.00  0.00     0.000 OA
ENDBRANCH 5 16
BRANCH 1 19
ATOM     19  O4  A00 X   2     190.562 194.456 180.0460  0.00  0.00     0.000 O
BRANCH 19 23
ATOM     20  C1  A00 X   2     189.798 194.016 175.8520  0.00  0.00     0.000 C
ATOM     21  C2  A00 X   2     191.171 194.595 176.2720  0.00  0.00     0.000 C
ATOM     22  C3  A00 X   2     191.465 194.292 177.7560  0.00  0.00     0.000 C
ATOM     23  C4  A00 X   2     190.306 194.787 178.6510  0.00  0.00     0.000 C
ATOM     24  C5  A00 X   2     188.992 194.154 178.1190  0.00  0.00     0.000 C
ATOM     25  O5  A00 X   2     188.795 194.573 176.7430  0.00  0.00     0.000 O
ATOM     26   O  A00 X   2     192.776 194.788 178.0770  0.00  0.00     0.000 O
ATOM     28  HD  A00 X   2     192.617 195.570 177.7400  0.00  0.00     0.000 HD
BRANCH 21 30
ATOM     28   N  A00 X   2     191.136 195.443 175.0770  0.00  0.00     0.000 N
ATOM     30  HD  A00 X   2     191.954 195.447 175.3630  0.00  0.00     0.000 HD
ATOM     30   O  A00 X   2     193.333 195.762 174.3470  0.00  0.00     0.000 OA
ATOM     31   S  A00 X   2     192.267 196.531 174.8850  0.00  0.00     0.000 S
ATOM     32   O  A00 X   2     191.683 197.472 173.9800  0.00  0.00     0.000 OA
ATOM     33   O  A00 X   2     192.488 197.141 176.1630  0.00  0.00     0.000 OA
ENDBRANCH 21 30
BRANCH 24 34
ATOM     34   C  A00 X   2     187.714 194.306 178.9780  0.00  0.00     0.000 C
ATOM     35   O  A00 X   2     184.731 196.094 177.8990  0.00  0.00     0.000 OA
ATOM     36   O  A00 X   2     186.854 195.339 178.4570  0.00  0.00     0.000 O
ATOM     37   O  A00 X   2     185.713 194.313 176.6920  0.00  0.00     0.000 OA
ATOM     38   S  A00 X   2     185.434 194.856 177.9860  0.00  0.00     0.000 S
ATOM     39   O  A00 X   2     184.957 193.958 178.9950  0.00  0.00     0.000 OA
ENDBRANCH 24 34
BRANCH 20 40
ATOM     40  O4  A00 X   3     189.893 192.600 176.0630  0.00  0.00     0.000 O
BRANCH 40 44
ATOM     41  C1  A00 X   3     188.348 189.575 177.3220  0.00  0.00     0.000 C
ATOM     42  C2  A00 X   3     189.759 189.649 176.7000  0.00  0.00     0.000 C
ATOM     43  C3  A00 X   3     189.725 190.374 175.3300  0.00  0.00     0.000 C
ATOM     44  C4  A00 X   3     189.007 191.717 175.3420  0.00  0.00     0.000 C
ATOM     45  C5  A00 X   3     187.596 191.560 175.9760  0.00  0.00     0.000 C
ATOM     46  O5  A00 X   3     187.674 190.863 177.2610  0.00  0.00     0.000 O
ATOM     47   O  A00 X   3     190.962 190.425 174.6220  0.00  0.00     0.000 O
ATOM     49  HD  A00 X   3     190.688 191.223 174.4260  0.00  0.00     0.000 HD
BRANCH 42 49
ATOM     49   O  A00 X   3     190.602 190.345 177.6450  0.00  0.00     0.000 O
ATOM     50   O  A00 X   3     192.876 191.086 177.7190  0.00  0.00     0.000 OA
ATOM     51   O  A00 X   3     192.401 188.953 176.8180  0.00  0.00     0.000 OA
ATOM     52   O  A00 X   3     192.082 189.294 179.1350  0.00  0.00     0.000 OA
ATOM     53   S  A00 X   3     192.081 189.906 177.8510  0.00  0.00     0.000 S
ENDBRANCH 42 49
BRANCH 45 54
ATOM     54   C  A00 X   3     186.603 190.917 175.0000  0.00  0.00     0.000 C
ATOM     55   O  A00 X   3     185.417 190.884 175.2550  0.00  0.00     0.000 OA
ATOM     56   O  A00 X   3     186.988 190.426 173.9500  0.00  0.00     0.000 OA
ENDBRANCH 45 54
BRANCH 41 57
ATOM     57  O4  A00 X   4     187.578 188.483 176.7700  0.00  0.00     0.000 O
BRANCH 57 61
ATOM     58  C1  A00 X   4     184.595 185.848 178.4430  0.00  0.00     0.000 C
ATOM     59  C2  A00 X   4     184.297 187.368 178.3920  0.00  0.00     0.000 C
ATOM     60  C3  A00 X   4     185.251 188.150 177.4660  0.00  0.00     0.000 C
ATOM     61  C4  A00 X   4     186.728 187.783 177.7220  0.00  0.00     0.000 C
ATOM     62  C5  A00 X   4     186.839 186.252 177.5140  0.00  0.00     0.000 C
ATOM     63  O5  A00 X   4     186.014 185.576 178.4980  0.00  0.00     0.000 O
BRANCH 59 66
ATOM     64   N  A00 X   4     184.463 187.978 179.7240  0.00  0.00     0.000 N
ATOM     66  HD  A00 X   4     185.026 187.605 180.2670  0.00  0.00     0.000 HD
ATOM     66   O  A00 X   4     182.250 187.189 180.2500  0.00  0.00     0.000 OA
ATOM     67   S  A00 X   4     183.155 188.237 180.6060  0.00  0.00     0.000 S
ATOM     68   O  A00 X   4     183.711 188.150 181.9250  0.00  0.00     0.000 OA
ATOM     69   O  A00 X   4     182.830 189.572 180.1920  0.00  0.00     0.000 OA
ENDBRANCH 59 66
BRANCH 62 70
ATOM     70   C  A00 X   4     188.281 185.702 177.6210  0.00  0.00     0.000 C
ATOM     71   O  A00 X   4     190.382 185.418 180.5560  0.00  0.00     0.000 OA
ATOM     72   O  A00 X   4     190.835 186.314 178.4260  0.00  0.00     0.000 OA
ATOM     73   O  A00 X   4     188.630 185.548 179.0060  0.00  0.00     0.000 O
ATOM     74   O  A00 X   4     189.468 187.578 179.9980  0.00  0.00     0.000 OA
ATOM     75   S  A00 X   4     189.902 186.301 179.5310  0.00  0.00     0.000 S
ENDBRANCH 62 70
ENDBRANCH 57 61
ENDBRANCH 41 57
ENDBRANCH 40 44
ENDBRANCH 20 40
ENDBRANCH 19 23
ENDBRANCH 1 19
TORSDOF 14
ENDMDL
MODEL 33
REMARK VINA RESULT:      -0.4    134.488    139.927
ROOT
ATOM      1  C1  A00 X   1      51.920 131.319  59.3950  0.00  0.00     0.000 C
ATOM      2  C2  A00 X   1      53.156 130.902  58.5550  0.00  0.00     0.000 C
ATOM      3  C3  A00 X   1      53.304 131.594  57.1600  0.00  0.00     0.000 C
ATOM      4  C4  A00 X   1      52.037 132.315  56.6340  0.00  0.00     0.000 C
ATOM      5  C5  A00 X   1      50.758 131.779  57.2770  0.00  0.00     0.000 C
ATOM      6  O5  A00 X   1      50.905 132.071  58.6850  0.00  0.00     0.000 O
ATOM      7   O  A00 X   1      53.637 130.603  56.1900  0.00  0.00     0.000 O
ATOM      9  HD  A00 X   1      53.058 131.133  55.8250  0.00  0.00     0.000 HD
ATOM      9   O  A00 X   1      52.120 133.727  56.8310  0.00  0.00     0.000 O
ATOM     11  HD  A00 X   1      51.541 134.257  56.4650  0.00  0.00     0.000 HD
ENDROOT
BRANCH 2 11
ATOM     11   O  A00 X   1      54.333 131.174  59.3410  0.00  0.00     0.000 O
ATOM     12   O  A00 X   1      56.545 130.981  58.4250  0.00  0.00     0.000 OA
ATOM     13   O  A00 X   1      55.153 128.994  58.6050  0.00  0.00     0.000 OA
ATOM     14   O  A00 X   1      55.985 130.063  60.5600  0.00  0.00     0.000 OA
ATOM     15   S  A00 X   1      55.579 130.235  59.1910  0.00  0.00     0.000 S
ENDBRANCH 2 11
BRANCH 5 16
ATOM     16   C  A00 X   1      50.455 130.306  56.9850  0.00  0.00     0.000 C
ATOM     17   O  A00 X   1      49.585 129.753  57.6270  0.00  0.00     0.000 OA
ATOM     18   O  A00 X   1      51.047 129.675  56.1320  0.00  0.00     0.000 OA
ENDBRANCH 5 16
BRANCH 1 19
ATOM     19  O4  A00 X   2      51.341 130.212  60.1290  0.00  0.00     0.000 O
BRANCH 19 23
ATOM     20  C1  A00 X   2      50.514 132.557  63.6190  0.00  0.00     0.000 C
ATOM     21  C2  A00 X   2      51.807 131.705  63.6200  0.00  0.00     0.000 C
ATOM     22  C3  A00 X   2      52.185 131.279  62.1870  0.00  0.00     0.000 C
ATOM     23  C4  A00 X   2      50.998 130.568  61.4990  0.00  0.00     0.000 C
ATOM     24  C5  A00 X   2      49.768 131.512  61.5800  0.00  0.00     0.000 C
ATOM     25  O5  A00 X   2      49.472 131.776  62.9760  0.00  0.00     0.000 O
ATOM     26   O  A00 X   2      53.425 130.551  62.2340  0.00  0.00     0.000 O
ATOM     28  HD  A00 X   2      53.149 130.025  62.8630  0.00  0.00     0.000 HD
BRANCH 21 30
ATOM     28   N  A00 X   2      51.617 131.487  65.0580  0.00  0.00     0.000 N
ATOM     30  HD  A00 X   2      52.435 131.266  64.8770  0.00  0.00     0.000 HD
ATOM     30   O  A00 X   2      53.725 131.288  66.0470  0.00  0.00     0.000 OA
ATOM     31   S  A00 X   2      52.581 130.482  65.8060  0.00  0.00     0.000 S
ATOM     32   O  A00 X   2      51.844 130.114  66.9760  0.00  0.00     0.000 OA
ATOM     33   O  A00 X   2      52.755 129.346  64.9510  0.00  0.00     0.000 OA
ENDBRANCH 21 30
BRANCH 24 34
ATOM     34   C  A00 X   2      48.509 131.135  60.7640  0.00  0.00     0.000 C
ATOM     35   O  A00 X   2      46.697 128.000  61.1400  0.00  0.00     0.000 OA
ATOM     36   O  A00 X   2      48.224 129.726  60.8640  0.00  0.00     0.000 O
ATOM     37   O  A00 X   2      47.130 129.497  62.9180  0.00  0.00     0.000 OA
ATOM     38   S  A00 X   2      46.842 129.365  61.5230  0.00  0.00     0.000 S
ATOM     39   O  A00 X   2      45.878 130.260  60.9570  0.00  0.00     0.000 OA
ENDBRANCH 24 34
BRANCH 20 40
ATOM     40  O4  A00 X   3      50.811 133.711  62.8190  0.00  0.00     0.000 O
BRANCH 40 44
ATOM     41  C1  A00 X   3      49.718 135.993  60.2270  0.00  0.00     0.000 C
ATOM     42  C2  A00 X   3      51.091 136.054  60.9310  0.00  0.00     0.000 C
ATOM     43  C3  A00 X   3      50.925 136.032  62.4730  0.00  0.00     0.000 C
ATOM     44  C4  A00 X   3      50.033 134.914  62.9980  0.00  0.00     0.000 C
ATOM     45  C5  A00 X   3      48.672 134.920  62.2460  0.00  0.00     0.000 C
ATOM     46  O5  A00 X   3      48.877 134.952  60.7960  0.00  0.00     0.000 O
ATOM     47   O  A00 X   3      52.125 136.171  63.2300  0.00  0.00     0.000 O
ATOM     49  HD  A00 X   3      51.741 135.582  63.7360  0.00  0.00     0.000 HD
BRANCH 42 49
ATOM     49   O  A00 X   3      51.856 134.920  60.4660  0.00  0.00     0.000 O
ATOM     50   O  A00 X   3      54.014 133.986  60.9130  0.00  0.00     0.000 OA
ATOM     51   O  A00 X   3      53.803 136.333  60.7300  0.00  0.00     0.000 OA
ATOM     52   O  A00 X   3      53.496 135.019  58.7890  0.00  0.00     0.000 OA
ATOM     53   S  A00 X   3      53.384 135.057  60.2070  0.00  0.00     0.000 S
ENDBRANCH 42 49
BRANCH 45 54
ATOM     54   C  A00 X   3      47.751 136.038  62.7500  0.00  0.00     0.000 C
ATOM     55   O  A00 X   3      48.163 136.878  63.5230  0.00  0.00     0.000 OA
ATOM     56   O  A00 X   3      46.588 136.102  62.3840  0.00  0.00     0.000 OA
ENDBRANCH 45 54
BRANCH 41 57
ATOM     57  O4  A00 X   4      49.088 137.292  60.1720  0.00  0.00     0.000 O
BRANCH 57 61
ATOM     58  C1  A00 X   4      46.506 139.186  57.2760  0.00  0.00     0.000 C
ATOM     59  C2  A00 X   4      46.016 137.892  57.9720  0.00  0.00     0.000 C
ATOM     60  C3  A00 X   4      46.839 137.516  59.2200  0.00  0.00     0.000 C
ATOM     61  C4  A00 X   4      48.357 137.574  58.9440  0.00  0.00     0.000 C
ATOM     62  C5  A00 X   4      48.657 139.014  58.4600  0.00  0.00     0.000 C
ATOM     63  O5  A00 X   4      47.949 139.257  57.2180  0.00  0.00     0.000 O
BRANCH 59 66
ATOM     64   N  A00 X   4      46.142 136.744  57.0560  0.00  0.00     0.000 N
ATOM     66  HD  A00 X   4      46.758 136.783  56.4490  0.00  0.00     0.000 HD
ATOM     66   O  A00 X   4      44.052 137.427  56.0740  0.00  0.00     0.000 OA
ATOM     67   S  A00 X   4      44.835 136.249  56.2790  0.00  0.00     0.000 S
ATOM     68   O  A00 X   4      45.431 135.691  55.1000  0.00  0.00     0.000 OA
ATOM     69   O  A00 X   4      44.343 135.271  57.2080  0.00  0.00     0.000 OA
ENDBRANCH 59 66
BRANCH 62 70
ATOM     70   C  A00 X   4      50.160 139.304  58.2340  0.00  0.00     0.000 C
ATOM     71   O  A00 X   4      52.354 138.000  55.6660  0.00  0.00     0.000 OA
ATOM     72   O  A00 X   4      52.635 138.136  58.0000  0.00  0.00     0.000 OA
ATOM     73   O  A00 X   4      50.561 138.771  56.9610  0.00  0.00     0.000 O
ATOM     74   O  A00 X   4      51.159 136.439  57.0630  0.00  0.00     0.000 OA
ATOM     75   S  A00 X   4      51.740 137.737  56.9370  0.00  0.00     0.000 S
ENDBRANCH 62 70
ENDBRANCH 57 61
ENDBRANCH 41 57
ENDBRANCH 40 44
ENDBRANCH 20 40
ENDBRANCH 19 23
ENDBRANCH 1 19
TORSDOF 14
ENDMDL
MODEL 34
REMARK VINA RESULT:      -0.4    110.576    115.349
ROOT
ATOM      1  C1  A00 X   1     105.299  52.649 160.6460  0.00  0.00     0.000 C
ATOM      2  C2  A00 X   1     105.153  52.569 159.1030  0.00  0.00     0.000 C
ATOM      3  C3  A00 X   1     103.860  53.210 158.5000  0.00  0.00     0.000 C
ATOM      4  C4  A00 X   1     102.728  53.511 159.5160  0.00  0.00     0.000 C
ATOM      5  C5  A00 X   1     102.844  52.657 160.7790  0.00  0.00     0.000 C
ATOM      6  O5  A00 X   1     104.106  53.043 161.3680  0.00  0.00     0.000 O
ATOM      7   O  A00 X   1     103.311  52.314 157.5360  0.00  0.00     0.000 O
ATOM      9  HD  A00 X   1     102.649  52.638 157.9900  0.00  0.00     0.000 HD
ATOM      9   O  A00 X   1     102.697  54.893 159.8690  0.00  0.00     0.000 O
ATOM     11  HD  A00 X   1     102.034  55.217 160.3220  0.00  0.00     0.000 HD
ENDROOT
BRANCH 2 11
ATOM     11   O  A00 X   1     106.307  53.204 158.5190  0.00  0.00     0.000 O
ATOM     12   O  A00 X   1     106.488  53.586 156.1550  0.00  0.00     0.000 OA
ATOM     13   O  A00 X   1     106.401  51.303 156.9890  0.00  0.00     0.000 OA
ATOM     14   O  A00 X   1     108.298  52.672 157.4210  0.00  0.00     0.000 OA
ATOM     15   S  A00 X   1     106.882  52.645 157.1730  0.00  0.00     0.000 S
ENDBRANCH 2 11
BRANCH 5 16
ATOM     16   C  A00 X   1     102.707  51.148 160.5560  0.00  0.00     0.000 C
ATOM     17   O  A00 X   1     102.995  50.398 161.4660  0.00  0.00     0.000 OA
ATOM     18   O  A00 X   1     102.314  50.677 159.5070  0.00  0.00     0.000 OA
ENDBRANCH 5 16
BRANCH 1 19
ATOM     19  O4  A00 X   2     105.892  51.456 161.2160  0.00  0.00     0.000 O
BRANCH 19 23
ATOM     20  C1  A00 X   2     108.255  53.619 164.0620  0.00  0.00     0.000 C
ATOM     21  C2  A00 X   2     108.946  53.174 162.7510  0.00  0.00     0.000 C
ATOM     22  C3  A00 X   2     107.902  52.811 161.6750  0.00  0.00     0.000 C
ATOM     23  C4  A00 X   2     106.907  51.760 162.2150  0.00  0.00     0.000 C
ATOM     24  C5  A00 X   2     106.300  52.314 163.5330  0.00  0.00     0.000 C
ATOM     25  O5  A00 X   2     107.374  52.544 164.4820  0.00  0.00     0.000 O
ATOM     26   O  A00 X   2     108.590  52.472 160.4590  0.00  0.00     0.000 O
ATOM     28  HD  A00 X   2     109.123  51.917 160.8560  0.00  0.00     0.000 HD
BRANCH 21 30
ATOM     28   N  A00 X   2     110.183  52.977 163.5140  0.00  0.00     0.000 N
ATOM     30  HD  A00 X   2     110.404  52.990 162.6760  0.00  0.00     0.000 HD
ATOM     30   O  A00 X   2     111.989  53.433 162.1030  0.00  0.00     0.000 OA
ATOM     31   S  A00 X   2     111.426  52.324 162.7880  0.00  0.00     0.000 S
ATOM     32   O  A00 X   2     112.217  51.814 163.8640  0.00  0.00     0.000 OA
ATOM     33   O  A00 X   2     110.929  51.248 161.9830  0.00  0.00     0.000 OA
ENDBRANCH 21 30
BRANCH 24 34
ATOM     34   C  A00 X   2     105.104  51.556 164.1570  0.00  0.00     0.000 C
ATOM     35   O  A00 X   2     105.197  48.051 165.1370  0.00  0.00     0.000 OA
ATOM     36   O  A00 X   2     105.308  50.130 164.1110  0.00  0.00     0.000 O
ATOM     37   O  A00 X   2     106.714  49.685 165.9260  0.00  0.00     0.000 OA
ATOM     38   S  A00 X   2     105.371  49.416 165.5100  0.00  0.00     0.000 S
ATOM     39   O  A00 X   2     104.310  49.971 166.2960  0.00  0.00     0.000 OA
ENDBRANCH 24 34
BRANCH 20 40
ATOM     40  O4  A00 X   3     107.475  54.773 163.7170  0.00  0.00     0.000 O
BRANCH 40 44
ATOM     41  C1  A00 X   3     104.320  56.527 164.0270  0.00  0.00     0.000 C
ATOM     42  C2  A00 X   3     105.516  57.010 163.1770  0.00  0.00     0.000 C
ATOM     43  C3  A00 X   3     106.824  57.011 164.0090  0.00  0.00     0.000 C
ATOM     44  C4  A00 X   3     107.104  55.710 164.7510  0.00  0.00     0.000 C
ATOM     45  C5  A00 X   3     105.860  55.294 165.5850  0.00  0.00     0.000 C
ATOM     46  O5  A00 X   3     104.648  55.317 164.7630  0.00  0.00     0.000 O
ATOM     47   O  A00 X   3     107.981  57.522 163.3500  0.00  0.00     0.000 O
ATOM     49  HD  A00 X   3     108.369  56.871 163.7700  0.00  0.00     0.000 HD
BRANCH 42 49
ATOM     49   O  A00 X   3     105.614  56.122 162.0420  0.00  0.00     0.000 O
ATOM     50   O  A00 X   3     107.088  55.852 160.1750  0.00  0.00     0.000 OA
ATOM     51   O  A00 X   3     106.456  58.036 160.8230  0.00  0.00     0.000 OA
ATOM     52   O  A00 X   3     104.811  56.617 159.8910  0.00  0.00     0.000 OA
ATOM     53   S  A00 X   3     106.017  56.674 160.6440  0.00  0.00     0.000 S
ENDBRANCH 42 49
BRANCH 45 54
ATOM     54   C  A00 X   3     105.734  56.124 166.8680  0.00  0.00     0.000 C
ATOM     55   O  A00 X   3     106.489  57.050 167.0830  0.00  0.00     0.000 OA
ATOM     56   O  A00 X   3     104.874  55.867 167.6970  0.00  0.00     0.000 OA
ENDBRANCH 45 54
BRANCH 41 57
ATOM     57  O4  A00 X   4     103.788  57.589 164.8500  0.00  0.00     0.000 O
BRANCH 57 61
ATOM     58  C1  A00 X   4      99.803  58.539 166.2120  0.00  0.00     0.000 C
ATOM     59  C2  A00 X   4     100.440  57.199 166.6590  0.00  0.00     0.000 C
ATOM     60  C3  A00 X   4     101.962  57.132 166.4200  0.00  0.00     0.000 C
ATOM     61  C4  A00 X   4     102.340  57.591 164.9960  0.00  0.00     0.000 C
ATOM     62  C5  A00 X   4     101.787  59.030 164.8410  0.00  0.00     0.000 C
ATOM     63  O5  A00 X   4     100.341  59.001 164.9520  0.00  0.00     0.000 O
BRANCH 59 66
ATOM     64   N  A00 X   4      99.863  56.093 165.8740  0.00  0.00     0.000 N
ATOM     66  HD  A00 X   4      99.569  56.276 165.0800  0.00  0.00     0.000 HD
ATOM     66   O  A00 X   4      98.004  56.108 167.4050  0.00  0.00     0.000 OA
ATOM     67   S  A00 X   4      98.708  55.211 166.5430  0.00  0.00     0.000 S
ATOM     68   O  A00 X   4      97.993  54.791 165.3730  0.00  0.00     0.000 OA
ATOM     69   O  A00 X   4      99.498  54.179 167.1510  0.00  0.00     0.000 OA
ENDBRANCH 59 66
BRANCH 62 70
ATOM     70   C  A00 X   4     102.164  59.711 163.5030  0.00  0.00     0.000 C
ATOM     71   O  A00 X   4     101.014  58.922 160.1620  0.00  0.00     0.000 OA
ATOM     72   O  A00 X   4     103.190  59.260 160.9960  0.00  0.00     0.000 OA
ATOM     73   O  A00 X   4     101.287  59.239 162.4670  0.00  0.00     0.000 O
ATOM     74   O  A00 X   4     102.027  57.172 161.4750  0.00  0.00     0.000 OA
ATOM     75   S  A00 X   4     101.936  58.571 161.2050  0.00  0.00     0.000 S
ENDBRANCH 62 70
ENDBRANCH 57 61
ENDBRANCH 41 57
ENDBRANCH 40 44
ENDBRANCH 20 40
ENDBRANCH 19 23
ENDBRANCH 1 19
TORSDOF 14
ENDMDL
MODEL 35
REMARK VINA RESULT:      -0.4    116.055    119.920
ROOT
ATOM      1  C1  A00 X   1      85.498 108.445 134.4010  0.00  0.00     0.000 C
ATOM      2  C2  A00 X   1      85.455 108.096 135.9120  0.00  0.00     0.000 C
ATOM      3  C3  A00 X   1      84.113 107.489 136.4400  0.00  0.00     0.000 C
ATOM      4  C4  A00 X   1      82.891 107.651 135.5000  0.00  0.00     0.000 C
ATOM      5  C5  A00 X   1      83.068 108.808 134.5170  0.00  0.00     0.000 C
ATOM      6  O5  A00 X   1      84.218 108.442 133.7210  0.00  0.00     0.000 O
ATOM      7   O  A00 X   1      83.770 108.134 137.6640  0.00  0.00     0.000 O
ATOM      9  HD  A00 X   1      83.039 108.048 137.2080  0.00  0.00     0.000 HD
ATOM      9   O  A00 X   1      82.622 106.446 134.7830  0.00  0.00     0.000 O
ATOM     11  HD  A00 X   1      81.891 106.360 134.3260  0.00  0.00     0.000 HD
ENDROOT
BRANCH 2 11
ATOM     11   O  A00 X   1      86.526 107.168 136.1780  0.00  0.00     0.000 O
ATOM     12   O  A00 X   1      86.769 106.086 138.3080  0.00  0.00     0.000 OA
ATOM     13   O  A00 X   1      86.994 108.504 138.1690  0.00  0.00     0.000 OA
ATOM     14   O  A00 X   1      88.630 107.083 137.1870  0.00  0.00     0.000 OA
ATOM     15   S  A00 X   1      87.250 107.224 137.5670  0.00  0.00     0.000 S
ENDBRANCH 2 11
BRANCH 5 16
ATOM     16   C  A00 X   1      83.185 110.193 135.1610  0.00  0.00     0.000 C
ATOM     17   O  A00 X   1      83.536 111.128 134.4710  0.00  0.00     0.000 OA
ATOM     18   O  A00 X   1      82.933 110.390 136.3330  0.00  0.00     0.000 OA
ENDBRANCH 5 16
BRANCH 1 19
ATOM     19  O4  A00 X   2      86.238 109.660 134.1260  0.00  0.00     0.000 O
BRANCH 19 23
ATOM     20  C1  A00 X   2      88.053 108.114 130.5650  0.00  0.00     0.000 C
ATOM     21  C2  A00 X   2      88.885 108.065 131.8700  0.00  0.00     0.000 C
ATOM     22  C3  A00 X   2      87.977 108.238 133.1060  0.00  0.00     0.000 C
ATOM     23  C4  A00 X   2      87.130 109.525 132.9830  0.00  0.00     0.000 C
ATOM     24  C5  A00 X   2      86.364 109.460 131.6330  0.00  0.00     0.000 C
ATOM     25  O5  A00 X   2      87.328 109.373 130.5520  0.00  0.00     0.000 O
ATOM     26   O  A00 X   2      88.784 108.117 134.2910  0.00  0.00     0.000 O
ATOM     28  HD  A00 X   2      89.372 108.687 134.0090  0.00  0.00     0.000 HD
BRANCH 21 30
ATOM     28   N  A00 X   2      90.088 108.306 131.0680  0.00  0.00     0.000 N
ATOM     30  HD  A00 X   2      90.355 108.022 131.8410  0.00  0.00     0.000 HD
ATOM     30   O  A00 X   2      91.881 107.225 132.1040  0.00  0.00     0.000 OA
ATOM     31   S  A00 X   2      91.460 108.550 131.8130  0.00  0.00     0.000 S
ATOM     32   O  A00 X   2      92.255 109.237 130.8430  0.00  0.00     0.000 OA
ATOM     33   O  A00 X   2      91.189 109.405 132.9300  0.00  0.00     0.000 OA
ENDBRANCH 21 30
BRANCH 24 34
ATOM     34   C  A00 X   2      85.267 110.519 131.3700  0.00  0.00     0.000 C
ATOM     35   O  A00 X   2      85.435 113.019 128.7280  0.00  0.00     0.000 OA
ATOM     36   O  A00 X   2      85.753 111.575 130.5170  0.00  0.00     0.000 O
ATOM     37   O  A00 X   2      85.611 110.690 128.3570  0.00  0.00     0.000 OA
ATOM     38   S  A00 X   2      85.007 111.723 129.1410  0.00  0.00     0.000 S
ATOM     39   O  A00 X   2      83.608 111.608 129.4250  0.00  0.00     0.000 OA
ENDBRANCH 24 34
BRANCH 20 40
ATOM     40  O4  A00 X   3      87.123 107.025 130.6570  0.00  0.00     0.000 O
BRANCH 40 44
ATOM     41  C1  A00 X   3      83.711 105.890 130.2210  0.00  0.00     0.000 C
ATOM     42  C2  A00 X   3      84.865 105.019 130.7630  0.00  0.00     0.000 C
ATOM     43  C3  A00 X   3      86.097 105.084 129.8230  0.00  0.00     0.000 C
ATOM     44  C4  A00 X   3      86.536 106.494 129.4500  0.00  0.00     0.000 C
ATOM     45  C5  A00 X   3      85.323 107.304 128.9110  0.00  0.00     0.000 C
ATOM     46  O5  A00 X   3      84.182 107.207 129.8230  0.00  0.00     0.000 O
ATOM     47   O  A00 X   3      87.196 104.248 130.1780  0.00  0.00     0.000 O
ATOM     49  HD  A00 X   3      87.656 104.934 129.9180  0.00  0.00     0.000 HD
BRANCH 42 49
ATOM     49   O  A00 X   3      85.183 105.511 132.0830  0.00  0.00     0.000 O
ATOM     50   O  A00 X   3      86.792 105.002 133.7810  0.00  0.00     0.000 OA
ATOM     51   O  A00 X   3      85.755 103.222 132.6200  0.00  0.00     0.000 OA
ATOM     52   O  A00 X   3      84.439 104.531 134.0830  0.00  0.00     0.000 OA
ATOM     53   S  A00 X   3      85.569 104.520 133.2190  0.00  0.00     0.000 S
ENDBRANCH 42 49
BRANCH 45 54
ATOM     54   C  A00 X   3      84.977 106.915 127.4680  0.00  0.00     0.000 C
ATOM     55   O  A00 X   3      84.159 107.550 126.8350  0.00  0.00     0.000 OA
ATOM     56   O  A00 X   3      85.517 105.960 126.9320  0.00  0.00     0.000 OA
ENDBRANCH 45 54
BRANCH 41 57
ATOM     57  O4  A00 X   4      82.958 105.201 129.1980  0.00  0.00     0.000 O
BRANCH 57 61
ATOM     58  C1  A00 X   4      78.785 105.244 128.0910  0.00  0.00     0.000 C
ATOM     59  C2  A00 X   4      79.590 106.563 127.9960  0.00  0.00     0.000 C
ATOM     60  C3  A00 X   4      81.117 106.358 128.0630  0.00  0.00     0.000 C
ATOM     61  C4  A00 X   4      81.520 105.429 129.2290  0.00  0.00     0.000 C
ATOM     62  C5  A00 X   4      80.761 104.097 129.0070  0.00  0.00     0.000 C
ATOM     63  O5  A00 X   4      79.334 104.344 129.0810  0.00  0.00     0.000 O
BRANCH 59 66
ATOM     64   N  A00 X   4      79.405 107.642 128.9840  0.00  0.00     0.000 N
ATOM     66  HD  A00 X   4      79.246 107.410 129.8040  0.00  0.00     0.000 HD
ATOM     66   O  A00 X   4      77.309 108.134 127.9050  0.00  0.00     0.000 OA
ATOM     67   S  A00 X   4      78.329 108.782 128.6670  0.00  0.00     0.000 S
ATOM     68   O  A00 X   4      77.957 109.164 129.9980  0.00  0.00     0.000 OA
ATOM     69   O  A00 X   4      79.164 109.737 127.9940  0.00  0.00     0.000 OA
ENDBRANCH 59 66
BRANCH 62 70
ATOM     70   C  A00 X   4      81.121 102.988 130.0240  0.00  0.00     0.000 C
ATOM     71   O  A00 X   4      80.337 102.813 133.5540  0.00  0.00     0.000 OA
ATOM     72   O  A00 X   4      82.374 102.494 132.4170  0.00  0.00     0.000 OA
ATOM     73   O  A00 X   4      80.400 103.211 131.2460  0.00  0.00     0.000 O
ATOM     74   O  A00 X   4      81.511 104.751 132.7290  0.00  0.00     0.000 OA
ATOM     75   S  A00 X   4      81.227 103.361 132.5690  0.00  0.00     0.000 S
ENDBRANCH 62 70
ENDBRANCH 57 61
ENDBRANCH 41 57
ENDBRANCH 40 44
ENDBRANCH 20 40
ENDBRANCH 19 23
ENDBRANCH 1 19
TORSDOF 14
ENDMDL
MODEL 36
REMARK VINA RESULT:      -0.4    110.401    114.955
ROOT
ATOM      1  C1  A00 X   1      89.835  62.742 153.0230  0.00  0.00     0.000 C
ATOM      2  C2  A00 X   1      89.062  61.578 152.3480  0.00  0.00     0.000 C
ATOM      3  C3  A00 X   1      89.507  61.208 150.8950  0.00  0.00     0.000 C
ATOM      4  C4  A00 X   1      90.390  62.261 150.1780  0.00  0.00     0.000 C
ATOM      5  C5  A00 X   1      90.221  63.658 150.7730  0.00  0.00     0.000 C
ATOM      6  O5  A00 X   1      90.671  63.532 152.1410  0.00  0.00     0.000 O
ATOM      7   O  A00 X   1      88.343  61.040 150.0890  0.00  0.00     0.000 O
ATOM      9  HD  A00 X   1      88.924  61.470 149.6120  0.00  0.00     0.000 HD
ATOM      9   O  A00 X   1      91.769  61.890 150.2030  0.00  0.00     0.000 O
ATOM     11  HD  A00 X   1      92.349  62.321 149.7270  0.00  0.00     0.000 HD
ENDROOT
BRANCH 2 11
ATOM     11   O  A00 X   1      89.196  60.416 153.1900  0.00  0.00     0.000 O
ATOM     12   O  A00 X   1      88.424  58.250 152.4980  0.00  0.00     0.000 OA
ATOM     13   O  A00 X   1      86.812  60.044 152.8110  0.00  0.00     0.000 OA
ATOM     14   O  A00 X   1      87.955  59.112 154.6770  0.00  0.00     0.000 OA
ATOM     15   S  A00 X   1      88.009  59.395 153.2680  0.00  0.00     0.000 S
ENDBRANCH 2 11
BRANCH 5 16
ATOM     16   C  A00 X   1      88.814  64.252 150.6440  0.00  0.00     0.000 C
ATOM     17   O  A00 X   1      88.546  65.255 151.2710  0.00  0.00     0.000 OA
ATOM     18   O  A00 X   1      87.962  63.759 149.9310  0.00  0.00     0.000 OA
ENDBRANCH 5 16
BRANCH 1 19
ATOM     19  O4  A00 X   2      88.983  63.584 153.8370  0.00  0.00     0.000 O
BRANCH 19 23
ATOM     20  C1  A00 X   2      91.905  64.073 156.9340  0.00  0.00     0.000 C
ATOM     21  C2  A00 X   2      90.814  62.994 157.1440  0.00  0.00     0.000 C
ATOM     22  C3  A00 X   2      90.127  62.640 155.8090  0.00  0.00     0.000 C
ATOM     23  C4  A00 X   2      89.586  63.914 155.1210  0.00  0.00     0.000 C
ATOM     24  C5  A00 X   2      90.765  64.917 154.9860  0.00  0.00     0.000 C
ATOM     25  O5  A00 X   2      91.272  65.222 156.3110  0.00  0.00     0.000 O
ATOM     26   O  A00 X   2      89.174  61.589 156.0450  0.00  0.00     0.000 O
ATOM     28  HD  A00 X   2      88.807  62.004 156.7110  0.00  0.00     0.000 HD
BRANCH 21 30
ATOM     28   N  A00 X   2      90.841  63.301 158.5780  0.00  0.00     0.000 N
ATOM     30  HD  A00 X   2      90.434  62.541 158.4910  0.00  0.00     0.000 HD
ATOM     30   O  A00 X   2      90.351  61.340 159.7500  0.00  0.00     0.000 OA
ATOM     31   S  A00 X   2      89.773  62.616 159.5200  0.00  0.00     0.000 S
ATOM     32   O  A00 X   2      89.729  63.474 160.6630  0.00  0.00     0.000 OA
ATOM     33   O  A00 X   2      88.518  62.645 158.8280  0.00  0.00     0.000 OA
ENDBRANCH 21 30
BRANCH 24 34
ATOM     34   C  A00 X   2      90.545  66.183 154.1240  0.00  0.00     0.000 C
ATOM     35   O  A00 X   2      90.665  69.582 155.4240  0.00  0.00     0.000 OA
ATOM     36   O  A00 X   2      90.299  67.340 154.9490  0.00  0.00     0.000 O
ATOM     37   O  A00 X   2      92.425  68.018 155.6490  0.00  0.00     0.000 OA
ATOM     38   S  A00 X   2      91.360  68.493 154.8200  0.00  0.00     0.000 S
ATOM     39   O  A00 X   2      91.626  68.644 153.4210  0.00  0.00     0.000 OA
ENDBRANCH 24 34
BRANCH 20 40
ATOM     40  O4  A00 X   3      92.852  63.494 156.0240  0.00  0.00     0.000 O
BRANCH 40 44
ATOM     41  C1  A00 X   3      94.943  63.916 153.0960  0.00  0.00     0.000 C
ATOM     42  C2  A00 X   3      94.813  62.607 153.9030  0.00  0.00     0.000 C
ATOM     43  C3  A00 X   3      95.032  62.863 155.4160  0.00  0.00     0.000 C
ATOM     44  C4  A00 X   3      94.202  64.004 155.9920  0.00  0.00     0.000 C
ATOM     45  C5  A00 X   3      94.389  65.285 155.1310  0.00  0.00     0.000 C
ATOM     46  O5  A00 X   3      94.184  64.994 153.7100  0.00  0.00     0.000 O
ATOM     47   O  A00 X   3      95.020  61.707 156.2520  0.00  0.00     0.000 O
ATOM     49  HD  A00 X   3      94.596  62.238 156.7890  0.00  0.00     0.000 HD
BRANCH 42 49
ATOM     49   O  A00 X   3      93.494  62.078 153.6420  0.00  0.00     0.000 O
ATOM     50   O  A00 X   3      92.200  60.205 154.3840  0.00  0.00     0.000 OA
ATOM     51   O  A00 X   3      94.495  59.891 153.9100  0.00  0.00     0.000 OA
ATOM     52   O  A00 X   3      93.028  60.356 152.1160  0.00  0.00     0.000 OA
ATOM     53   S  A00 X   3      93.275  60.543 153.5040  0.00  0.00     0.000 S
ENDBRANCH 42 49
BRANCH 45 54
ATOM     54   C  A00 X   3      95.730  65.971 155.4180  0.00  0.00     0.000 C
ATOM     55   O  A00 X   3      95.968  67.075 154.9730  0.00  0.00     0.000 OA
ATOM     56   O  A00 X   3      96.582  65.420 156.0980  0.00  0.00     0.000 OA
ENDBRANCH 45 54
BRANCH 41 57
ATOM     57  O4  A00 X   4      96.325  64.247 152.8340  0.00  0.00     0.000 O
BRANCH 57 61
ATOM     58  C1  A00 X   4      98.310  66.177 149.5210  0.00  0.00     0.000 C
ATOM     59  C2  A00 X   4      97.262  66.982 150.3280  0.00  0.00     0.000 C
ATOM     60  C3  A00 X   4      96.894  66.333 151.6780  0.00  0.00     0.000 C
ATOM     61  C4  A00 X   4      96.584  64.828 151.5240  0.00  0.00     0.000 C
ATOM     62  C5  A00 X   4      97.844  64.186 150.8920  0.00  0.00     0.000 C
ATOM     63  O5  A00 X   4      98.059  64.754 149.5750  0.00  0.00     0.000 O
BRANCH 59 66
ATOM     64   N  A00 X   4      96.005  67.057 149.5630  0.00  0.00     0.000 N
ATOM     66  HD  A00 X   4      95.837  66.414 149.0060  0.00  0.00     0.000 HD
ATOM     66   O  A00 X   4      96.972  68.895 148.3450  0.00  0.00     0.000 OA
ATOM     67   S  A00 X   4      95.694  68.396 148.7450  0.00  0.00     0.000 S
ATOM     68   O  A00 X   4      94.878  67.871 147.6890  0.00  0.00     0.000 OA
ATOM     69   O  A00 X   4      94.967  69.135 149.7380  0.00  0.00     0.000 OA
ENDBRANCH 59 66
BRANCH 62 70
ATOM     70   C  A00 X   4      97.769  62.647 150.7580  0.00  0.00     0.000 C
ATOM     71   O  A00 X   4      95.679  60.667 148.5640  0.00  0.00     0.000 OA
ATOM     72   O  A00 X   4      96.074  60.489 150.8780  0.00  0.00     0.000 OA
ATOM     73   O  A00 X   4      96.991  62.308 149.5990  0.00  0.00     0.000 O
ATOM     74   O  A00 X   4      94.622  62.256 150.0370  0.00  0.00     0.000 OA
ATOM     75   S  A00 X   4      95.734  61.393 149.8020  0.00  0.00     0.000 S
ENDBRANCH 62 70
ENDBRANCH 57 61
ENDBRANCH 41 57
ENDBRANCH 40 44
ENDBRANCH 20 40
ENDBRANCH 19 23
ENDBRANCH 1 19
TORSDOF 14
ENDMDL
MODEL 37
REMARK VINA RESULT:      -0.4     97.070    102.123
ROOT
ATOM      1  C1  A00 X   1     151.853  71.981 161.1850  0.00  0.00     0.000 C
ATOM      2  C2  A00 X   1     150.302  71.988 161.1330  0.00  0.00     0.000 C
ATOM      3  C3  A00 X   1     149.663  72.390 159.7630  0.00  0.00     0.000 C
ATOM      4  C4  A00 X   1     150.619  73.076 158.7540  0.00  0.00     0.000 C
ATOM      5  C5  A00 X   1     151.823  73.718 159.4450  0.00  0.00     0.000 C
ATOM      6  O5  A00 X   1     152.520  72.615 160.0660  0.00  0.00     0.000 O
ATOM      7   O  A00 X   1     148.602  73.311 160.0060  0.00  0.00     0.000 O
ATOM      9  HD  A00 X   1     149.032  73.595 159.3100  0.00  0.00     0.000 HD
ATOM      9   O  A00 X   1     151.068  72.161 157.7550  0.00  0.00     0.000 O
ATOM     11  HD  A00 X   1     151.498  72.445 157.0590  0.00  0.00     0.000 HD
ENDROOT
BRANCH 2 11
ATOM     11   O  A00 X   1     149.845  70.671 161.4960  0.00  0.00     0.000 O
ATOM     12   O  A00 X   1     147.534  70.039 161.3310  0.00  0.00     0.000 OA
ATOM     13   O  A00 X   1     148.180  71.791 162.8890  0.00  0.00     0.000 OA
ATOM     14   O  A00 X   1     148.837  69.537 163.2710  0.00  0.00     0.000 OA
ATOM     15   S  A00 X   1     148.498  70.527 162.2840  0.00  0.00     0.000 S
ENDBRANCH 2 11
BRANCH 5 16
ATOM     16   C  A00 X   1     151.483  74.854 160.4160  0.00  0.00     0.000 C
ATOM     17   O  A00 X   1     152.352  75.264 161.1560  0.00  0.00     0.000 OA
ATOM     18   O  A00 X   1     150.380  75.360 160.4660  0.00  0.00     0.000 OA
ENDBRANCH 5 16
BRANCH 1 19
ATOM     19  O4  A00 X   2     152.375  72.457 162.4500  0.00  0.00     0.000 O
BRANCH 19 23
ATOM     20  C1  A00 X   2     155.537  69.568 162.5870  0.00  0.00     0.000 C
ATOM     21  C2  A00 X   2     154.249  69.256 163.3860  0.00  0.00     0.000 C
ATOM     22  C3  A00 X   2     153.076  70.136 162.9040  0.00  0.00     0.000 C
ATOM     23  C4  A00 X   2     153.464  71.631 162.9520  0.00  0.00     0.000 C
ATOM     24  C5  A00 X   2     154.773  71.809 162.1350  0.00  0.00     0.000 C
ATOM     25  O5  A00 X   2     155.811  70.988 162.7310  0.00  0.00     0.000 O
ATOM     26   O  A00 X   2     151.891  69.761 163.6270  0.00  0.00     0.000 O
ATOM     28  HD  A00 X   2     152.283  69.815 164.3970  0.00  0.00     0.000 HD
BRANCH 21 30
ATOM     28   N  A00 X   2     155.079  68.604 164.4030  0.00  0.00     0.000 N
ATOM     30  HD  A00 X   2     154.263  68.348 164.5430  0.00  0.00     0.000 HD
ATOM     30   O  A00 X   2     153.842  66.858 165.3420  0.00  0.00     0.000 OA
ATOM     31   S  A00 X   2     154.392  68.106 165.7370  0.00  0.00     0.000 S
ATOM     32   O  A00 X   2     155.477  68.021 166.6650  0.00  0.00     0.000 OA
ATOM     33   O  A00 X   2     153.469  69.124 166.1440  0.00  0.00     0.000 OA
ENDBRANCH 21 30
BRANCH 24 34
ATOM     34   C  A00 X   2     155.251  73.249 161.8330  0.00  0.00     0.000 C
ATOM     35   O  A00 X   2     158.399  74.644 163.0140  0.00  0.00     0.000 OA
ATOM     36   O  A00 X   2     156.333  73.634 162.7040  0.00  0.00     0.000 O
ATOM     37   O  A00 X   2     158.228  72.656 161.7440  0.00  0.00     0.000 OA
ATOM     38   S  A00 X   2     157.691  73.961 161.9820  0.00  0.00     0.000 S
ATOM     39   O  A00 X   2     157.360  74.761 160.8410  0.00  0.00     0.000 OA
ENDBRANCH 24 34
BRANCH 20 40
ATOM     40  O4  A00 X   3     155.224  69.277 161.2170  0.00  0.00     0.000 O
BRANCH 40 44
ATOM     41  C1  A00 X   3     155.434  70.270 157.7390  0.00  0.00     0.000 C
ATOM     42  C2  A00 X   3     154.712  69.004 158.2510  0.00  0.00     0.000 C
ATOM     43  C3  A00 X   3     155.635  68.177 159.1820  0.00  0.00     0.000 C
ATOM     44  C4  A00 X   3     156.296  68.980 160.2960  0.00  0.00     0.000 C
ATOM     45  C5  A00 X   3     157.003  70.231 159.7030  0.00  0.00     0.000 C
ATOM     46  O5  A00 X   3     156.099  70.975 158.8240  0.00  0.00     0.000 O
ATOM     47   O  A00 X   3     155.103  66.938 159.6470  0.00  0.00     0.000 O
ATOM     49  HD  A00 X   3     155.499  67.172 160.3800  0.00  0.00     0.000 HD
BRANCH 42 49
ATOM     49   O  A00 X   3     153.524  69.446 158.9440  0.00  0.00     0.000 O
ATOM     50   O  A00 X   3     151.749  68.411 160.1730  0.00  0.00     0.000 OA
ATOM     51   O  A00 X   3     152.513  67.382 158.1860  0.00  0.00     0.000 OA
ATOM     52   O  A00 X   3     151.365  69.441 158.0190  0.00  0.00     0.000 OA
ATOM     53   S  A00 X   3     152.202  68.631 158.8350  0.00  0.00     0.000 S
ENDBRANCH 42 49
BRANCH 45 54
ATOM     54   C  A00 X   3     158.332  69.866 159.0310  0.00  0.00     0.000 C
ATOM     55   O  A00 X   3     159.113  70.732 158.6940  0.00  0.00     0.000 OA
ATOM     56   O  A00 X   3     158.628  68.699 158.8230  0.00  0.00     0.000 OA
ENDBRANCH 45 54
BRANCH 41 57
ATOM     57  O4  A00 X   4     156.293  69.976 156.6150  0.00  0.00     0.000 O
BRANCH 57 61
ATOM     58  C1  A00 X   4     157.430  72.235 153.1160  0.00  0.00     0.000 C
ATOM     59  C2  A00 X   4     157.805  72.792 154.5120  0.00  0.00     0.000 C
ATOM     60  C3  A00 X   4     157.676  71.752 155.6440  0.00  0.00     0.000 C
ATOM     61  C4  A00 X   4     156.329  71.000 155.5810  0.00  0.00     0.000 C
ATOM     62  C5  A00 X   4     156.260  70.347 154.1780  0.00  0.00     0.000 C
ATOM     63  O5  A00 X   4     156.259  71.388 153.1670  0.00  0.00     0.000 O
BRANCH 59 66
ATOM     64   N  A00 X   4     156.893  73.890 154.8810  0.00  0.00     0.000 N
ATOM     66  HD  A00 X   4     156.095  73.878 154.5450  0.00  0.00     0.000 HD
ATOM     66   O  A00 X   4     158.267  75.347 153.5430  0.00  0.00     0.000 OA
ATOM     67   S  A00 X   4     157.398  75.394 154.6770  0.00  0.00     0.000 S
ATOM     68   O  A00 X   4     156.146  76.061 154.4660  0.00  0.00     0.000 OA
ATOM     69   O  A00 X   4     157.986  75.641 155.9620  0.00  0.00     0.000 OA
ENDBRANCH 59 66
BRANCH 62 70
ATOM     70   C  A00 X   4     155.019  69.449 153.9600  0.00  0.00     0.000 C
ATOM     71   O  A00 X   4     151.546  70.424 153.6570  0.00  0.00     0.000 OA
ATOM     72   O  A00 X   4     152.564  68.769 154.9860  0.00  0.00     0.000 OA
ATOM     73   O  A00 X   4     153.884  70.274 153.6520  0.00  0.00     0.000 O
ATOM     74   O  A00 X   4     152.770  71.114 155.6160  0.00  0.00     0.000 OA
ATOM     75   S  A00 X   4     152.619  70.153 154.5720  0.00  0.00     0.000 S
ENDBRANCH 62 70
ENDBRANCH 57 61
ENDBRANCH 41 57
ENDBRANCH 40 44
ENDBRANCH 20 40
ENDBRANCH 19 23
ENDBRANCH 1 19
TORSDOF 14
ENDMDL
MODEL 38
REMARK VINA RESULT:      -0.4    108.145    112.004
ROOT
ATOM      1  C1  A00 X   1     102.084 116.661 128.8990  0.00  0.00     0.000 C
ATOM      2  C2  A00 X   1     101.400 116.210 130.2170  0.00  0.00     0.000 C
ATOM      3  C3  A00 X   1      99.837 116.147 130.1940  0.00  0.00     0.000 C
ATOM      4  C4  A00 X   1      99.156 116.880 129.0090  0.00  0.00     0.000 C
ATOM      5  C5  A00 X   1     100.055 117.958 128.4040  0.00  0.00     0.000 C
ATOM      6  O5  A00 X   1     101.205 117.240 127.9040  0.00  0.00     0.000 O
ATOM      7   O  A00 X   1      99.337 116.751 131.3840  0.00  0.00     0.000 O
ATOM      9  HD  A00 X   1      98.830 117.012 130.7330  0.00  0.00     0.000 HD
ATOM      9   O  A00 X   1      98.752 115.963 127.9920  0.00  0.00     0.000 O
ATOM     11  HD  A00 X   1      98.244 116.224 127.3410  0.00  0.00     0.000 HD
ENDROOT
BRANCH 2 11
ATOM     11   O  A00 X   1     101.917 114.909 130.5570  0.00  0.00     0.000 O
ATOM     12   O  A00 X   1     101.008 113.613 132.3630  0.00  0.00     0.000 OA
ATOM     13   O  A00 X   1     102.091 115.736 132.8490  0.00  0.00     0.000 OA
ATOM     14   O  A00 X   1     103.365 113.883 132.0750  0.00  0.00     0.000 OA
ATOM     15   S  A00 X   1     102.080 114.529 132.0690  0.00  0.00     0.000 S
ENDBRANCH 2 11
BRANCH 5 16
ATOM     16   C  A00 X   1     100.415 119.108 129.3520  0.00  0.00     0.000 C
ATOM     17   O  A00 X   1     101.284 119.886 129.0170  0.00  0.00     0.000 OA
ATOM     18   O  A00 X   1      99.857 119.272 130.4180  0.00  0.00     0.000 OA
ENDBRANCH 5 16
BRANCH 1 19
ATOM     19  O4  A00 X   2     103.247 117.494 129.1270  0.00  0.00     0.000 O
BRANCH 19 23
ATOM     20  C1  A00 X   2     105.525 115.717 125.9620  0.00  0.00     0.000 C
ATOM     21  C2  A00 X   2     105.776 115.201 127.4000  0.00  0.00     0.000 C
ATOM     22  C3  A00 X   2     104.617 115.601 128.3370  0.00  0.00     0.000 C
ATOM     23  C4  A00 X   2     104.373 117.126 128.2800  0.00  0.00     0.000 C
ATOM     24  C5  A00 X   2     104.155 117.517 126.7930  0.00  0.00     0.000 C
ATOM     25  O5  A00 X   2     105.339 117.155 126.0360  0.00  0.00     0.000 O
ATOM     26   O  A00 X   2     104.863 115.042 129.6390  0.00  0.00     0.000 O
ATOM     28  HD  A00 X   2     105.672 115.349 129.6730  0.00  0.00     0.000 HD
BRANCH 21 30
ATOM     28   N  A00 X   2     107.185 115.011 127.0430  0.00  0.00     0.000 N
ATOM     30  HD  A00 X   2     107.050 114.568 127.7740  0.00  0.00     0.000 HD
ATOM     30   O  A00 X   2     108.006 113.197 128.2650  0.00  0.00     0.000 OA
ATOM     31   S  A00 X   2     108.206 114.600 128.1770  0.00  0.00     0.000 S
ATOM     32   O  A00 X   2     109.475 114.998 127.6500  0.00  0.00     0.000 OA
ATOM     33   O  A00 X   2     107.884 115.376 129.3380  0.00  0.00     0.000 OA
ENDBRANCH 21 30
BRANCH 24 34
ATOM     34   C  A00 X   2     103.663 118.950 126.4840  0.00  0.00     0.000 C
ATOM     35   O  A00 X   2     105.577 121.399 124.5870  0.00  0.00     0.000 OA
ATOM     36   O  A00 X   2     104.747 119.790 126.0400  0.00  0.00     0.000 O
ATOM     37   O  A00 X   2     105.017 119.248 123.7810  0.00  0.00     0.000 OA
ATOM     38   S  A00 X   2     104.601 120.359 124.5810  0.00  0.00     0.000 S
ATOM     39   O  A00 X   2     103.245 120.799 124.4520  0.00  0.00     0.000 OA
ENDBRANCH 24 34
BRANCH 20 40
ATOM     40  O4  A00 X   3     104.303 115.097 125.5360  0.00  0.00     0.000 O
BRANCH 40 44
ATOM     41  C1  A00 X   3     101.093 115.449 123.8930  0.00  0.00     0.000 C
ATOM     42  C2  A00 X   3     101.615 114.145 124.5340  0.00  0.00     0.000 C
ATOM     43  C3  A00 X   3     103.042 113.810 124.0280  0.00  0.00     0.000 C
ATOM     44  C4  A00 X   3     104.034 114.962 124.1240  0.00  0.00     0.000 C
ATOM     45  C5  A00 X   3     103.441 116.233 123.4540  0.00  0.00     0.000 C
ATOM     46  O5  A00 X   3     102.091 116.505 123.9540  0.00  0.00     0.000 O
ATOM     47   O  A00 X   3     103.593 112.578 124.4880  0.00  0.00     0.000 O
ATOM     49  HD  A00 X   3     104.318 113.048 124.5320  0.00  0.00     0.000 HD
BRANCH 42 49
ATOM     49   O  A00 X   3     101.595 114.340 125.9650  0.00  0.00     0.000 O
ATOM     50   O  A00 X   3     102.224 113.070 127.8950  0.00  0.00     0.000 OA
ATOM     51   O  A00 X   3     101.121 111.971 126.1160  0.00  0.00     0.000 OA
ATOM     52   O  A00 X   3      99.907 113.547 127.3930  0.00  0.00     0.000 OA
ATOM     53   S  A00 X   3     101.192 113.171 126.9120  0.00  0.00     0.000 S
ENDBRANCH 42 49
BRANCH 45 54
ATOM     54   C  A00 X   3     103.513 116.156 121.9250  0.00  0.00     0.000 C
ATOM     55   O  A00 X   3     103.816 115.119 121.3710  0.00  0.00     0.000 OA
ATOM     56   O  A00 X   3     103.270 117.135 121.2370  0.00  0.00     0.000 OA
ENDBRANCH 45 54
BRANCH 41 57
ATOM     57  O4  A00 X   4     100.562 115.218 122.5690  0.00  0.00     0.000 O
BRANCH 57 61
ATOM     58  C1  A00 X   4      97.348 117.036 120.3320  0.00  0.00     0.000 C
ATOM     59  C2  A00 X   4      98.547 117.919 120.7580  0.00  0.00     0.000 C
ATOM     60  C3  A00 X   4      99.774 117.108 121.2210  0.00  0.00     0.000 C
ATOM     61  C4  A00 X   4      99.386 116.005 122.2290  0.00  0.00     0.000 C
ATOM     62  C5  A00 X   4      98.334 115.117 121.5190  0.00  0.00     0.000 C
ATOM     63  O5  A00 X   4      97.158 115.914 121.2240  0.00  0.00     0.000 O
BRANCH 59 66
ATOM     64   N  A00 X   4      98.201 118.776 121.9060  0.00  0.00     0.000 N
ATOM     66  HD  A00 X   4      97.597 118.485 122.4550  0.00  0.00     0.000 HD
ATOM     66   O  A00 X   4      97.158 120.281 120.3420  0.00  0.00     0.000 OA
ATOM     67   S  A00 X   4      97.795 120.297 121.6220  0.00  0.00     0.000 S
ATOM     68   O  A00 X   4      96.930 120.547 122.7380  0.00  0.00     0.000 OA
ATOM     69   O  A00 X   4      99.081 120.925 121.7220  0.00  0.00     0.000 OA
ENDBRANCH 59 66
BRANCH 62 70
ATOM     70   C  A00 X   4      97.896 113.879 122.3370  0.00  0.00     0.000 C
ATOM     71   O  A00 X   4      95.915 113.753 125.3640  0.00  0.00     0.000 OA
ATOM     72   O  A00 X   4      97.967 112.729 124.8300  0.00  0.00     0.000 OA
ATOM     73   O  A00 X   4      96.920 114.276 123.3140  0.00  0.00     0.000 O
ATOM     74   O  A00 X   4      97.908 115.110 125.3470  0.00  0.00     0.000 OA
ATOM     75   S  A00 X   4      97.226 113.971 124.8220  0.00  0.00     0.000 S
ENDBRANCH 62 70
ENDBRANCH 57 61
ENDBRANCH 41 57
ENDBRANCH 40 44
ENDBRANCH 20 40
ENDBRANCH 19 23
ENDBRANCH 1 19
TORSDOF 14
ENDMDL
MODEL 39
REMARK VINA RESULT:      -0.4    159.585    164.927
ROOT
ATOM      1  C1  A00 X   1      33.199 116.161 136.9750  0.00  0.00     0.000 C
ATOM      2  C2  A00 X   1      34.475 115.677 136.2360  0.00  0.00     0.000 C
ATOM      3  C3  A00 X   1      35.238 114.480 136.8950  0.00  0.00     0.000 C
ATOM      4  C4  A00 X   1      34.853 114.169 138.3640  0.00  0.00     0.000 C
ATOM      5  C5  A00 X   1      34.230 115.376 139.0650  0.00  0.00     0.000 C
ATOM      6  O5  A00 X   1      33.022 115.650 138.3200  0.00  0.00     0.000 O
ATOM      7   O  A00 X   1      36.634 114.772 136.8950  0.00  0.00     0.000 O
ATOM      9  HD  A00 X   1      36.448 114.413 137.6610  0.00  0.00     0.000 HD
ATOM      9   O  A00 X   1      33.967 113.053 138.4460  0.00  0.00     0.000 O
ATOM     11  HD  A00 X   1      33.781 112.694 139.2110  0.00  0.00     0.000 HD
ENDROOT
BRANCH 2 11
ATOM     11   O  A00 X   1      34.094 115.310 134.8960  0.00  0.00     0.000 O
ATOM     12   O  A00 X   1      35.626 114.242 133.3870  0.00  0.00     0.000 OA
ATOM     13   O  A00 X   1      36.094 116.501 134.1560  0.00  0.00     0.000 OA
ATOM     14   O  A00 X   1      34.262 116.080 132.6980  0.00  0.00     0.000 OA
ATOM     15   S  A00 X   1      35.112 115.544 133.7270  0.00  0.00     0.000 S
ENDBRANCH 2 11
BRANCH 5 16
ATOM     16   C  A00 X   1      35.152 116.591 139.2070  0.00  0.00     0.000 C
ATOM     17   O  A00 X   1      34.668 117.653 139.5380  0.00  0.00     0.000 OA
ATOM     18   O  A00 X   1      36.349 116.527 139.0070  0.00  0.00     0.000 OA
ENDBRANCH 5 16
BRANCH 1 19
ATOM     19  O4  A00 X   2      33.037 117.600 136.9310  0.00  0.00     0.000 O
BRANCH 19 23
ATOM     20  C1  A00 X   2      28.791 117.412 136.3810  0.00  0.00     0.000 C
ATOM     21  C2  A00 X   2      29.667 117.610 135.1200  0.00  0.00     0.000 C
ATOM     22  C3  A00 X   2      31.134 117.228 135.4050  0.00  0.00     0.000 C
ATOM     23  C4  A00 X   2      31.668 117.999 136.6330  0.00  0.00     0.000 C
ATOM     24  C5  A00 X   2      30.699 117.735 137.8180  0.00  0.00     0.000 C
ATOM     25  O5  A00 X   2      29.374 118.203 137.4510  0.00  0.00     0.000 O
ATOM     26   O  A00 X   2      31.890 117.363 134.1890  0.00  0.00     0.000 O
ATOM     28  HD  A00 X   2      31.594 118.163 134.0350  0.00  0.00     0.000 HD
BRANCH 21 30
ATOM     28   N  A00 X   2      28.603 118.449 134.5600  0.00  0.00     0.000 N
ATOM     30  HD  A00 X   2      29.128 118.239 133.9040  0.00  0.00     0.000 HD
ATOM     30   O  A00 X   2      28.623 118.193 132.2370  0.00  0.00     0.000 OA
ATOM     31   S  A00 X   2      28.873 119.208 133.1990  0.00  0.00     0.000 S
ATOM     32   O  A00 X   2      27.921 120.275 133.2120  0.00  0.00     0.000 OA
ATOM     33   O  A00 X   2      30.206 119.729 133.2620  0.00  0.00     0.000 OA
ENDBRANCH 21 30
BRANCH 24 34
ATOM     34   C  A00 X   2      31.129 118.205 139.2270  0.00  0.00     0.000 C
ATOM     35   O  A00 X   2      29.378 120.752 141.1510  0.00  0.00     0.000 OA
ATOM     36   O  A00 X   2      30.482 119.443 139.5850  0.00  0.00     0.000 O
ATOM     37   O  A00 X   2      28.350 118.799 140.3010  0.00  0.00     0.000 OA
ATOM     38   S  A00 X   2      29.544 119.369 140.8450  0.00  0.00     0.000 S
ATOM     39   O  A00 X   2      30.252 118.610 141.8320  0.00  0.00     0.000 OA
ENDBRANCH 24 34
BRANCH 20 40
ATOM     40  O4  A00 X   3      28.889 116.018 136.7060  0.00  0.00     0.000 O
BRANCH 40 44
ATOM     41  C1  A00 X   3      29.311 113.484 139.2610  0.00  0.00     0.000 C
ATOM     42  C2  A00 X   3      29.174 113.197 137.7500  0.00  0.00     0.000 C
ATOM     43  C3  A00 X   3      27.937 113.918 137.1570  0.00  0.00     0.000 C
ATOM     44  C4  A00 X   3      27.847 115.401 137.4930  0.00  0.00     0.000 C
ATOM     45  C5  A00 X   3      27.988 115.609 139.0280  0.00  0.00     0.000 C
ATOM     46  O5  A00 X   3      29.162 114.903 139.5450  0.00  0.00     0.000 O
ATOM     47   O  A00 X   3      27.661 113.654 135.7830  0.00  0.00     0.000 O
ATOM     49  HD  A00 X   3      27.464 114.498 135.7770  0.00  0.00     0.000 HD
BRANCH 42 49
ATOM     49   O  A00 X   3      30.396 113.642 137.1220  0.00  0.00     0.000 O
ATOM     50   O  A00 X   3      31.253 113.763 134.8900  0.00  0.00     0.000 OA
ATOM     51   O  A00 X   3      30.056 111.834 135.5500  0.00  0.00     0.000 OA
ATOM     52   O  A00 X   3      32.174 112.232 136.5190  0.00  0.00     0.000 OA
ATOM     53   S  A00 X   3      31.018 112.831 135.9480  0.00  0.00     0.000 S
ENDBRANCH 42 49
BRANCH 45 54
ATOM     54   C  A00 X   3      26.694 115.253 139.7690  0.00  0.00     0.000 C
ATOM     55   O  A00 X   3      26.583 115.468 140.9590  0.00  0.00     0.000 OA
ATOM     56   O  A00 X   3      25.753 114.746 139.1780  0.00  0.00     0.000 OA
ENDBRANCH 45 54
BRANCH 41 57
ATOM     57  O4  A00 X   4      28.446 112.634 140.0470  0.00  0.00     0.000 O
BRANCH 57 61
ATOM     58  C1  A00 X   4      28.842 110.853 143.9590  0.00  0.00     0.000 C
ATOM     59  C2  A00 X   4      28.850 112.397 143.8440  0.00  0.00     0.000 C
ATOM     60  C3  A00 X   4      28.348 112.914 142.4800  0.00  0.00     0.000 C
ATOM     61  C4  A00 X   4      29.013 112.168 141.3040  0.00  0.00     0.000 C
ATOM     62  C5  A00 X   4      28.701 110.665 141.5090  0.00  0.00     0.000 C
ATOM     63  O5  A00 X   4      29.308 110.216 142.7480  0.00  0.00     0.000 O
BRANCH 59 66
ATOM     64   N  A00 X   4      30.218 112.928 143.9770  0.00  0.00     0.000 N
ATOM     66  HD  A00 X   4      30.872 112.416 143.7300  0.00  0.00     0.000 HD
ATOM     66   O  A00 X   4      29.952 112.738 146.3630  0.00  0.00     0.000 OA
ATOM     67   S  A00 X   4      30.670 113.509 145.3970  0.00  0.00     0.000 S
ATOM     68   O  A00 X   4      32.082 113.265 145.3390  0.00  0.00     0.000 OA
ATOM     69   O  A00 X   4      30.304 114.888 145.2340  0.00  0.00     0.000 OA
ENDBRANCH 59 66
BRANCH 62 70
ATOM     70   C  A00 X   4      29.196 109.754 140.3610  0.00  0.00     0.000 C
ATOM     71   O  A00 X   4      32.597 108.900 139.4580  0.00  0.00     0.000 OA
ATOM     72   O  A00 X   4      30.805 109.665 138.1360  0.00  0.00     0.000 OA
ATOM     73   O  A00 X   4      30.601 109.501 140.5270  0.00  0.00     0.000 O
ATOM     74   O  A00 X   4      31.988 111.230 139.5820  0.00  0.00     0.000 OA
ATOM     75   S  A00 X   4      31.561 109.888 139.3490  0.00  0.00     0.000 S
ENDBRANCH 62 70
ENDBRANCH 57 61
ENDBRANCH 41 57
ENDBRANCH 40 44
ENDBRANCH 20 40
ENDBRANCH 19 23
ENDBRANCH 1 19
TORSDOF 14
ENDMDL
MODEL 40
REMARK VINA RESULT:      -0.4    193.119    198.308
ROOT
ATOM      1  C1  A00 X   1      35.027 156.886 164.7680  0.00  0.00     0.000 C
ATOM      2  C2  A00 X   1      35.891 155.598 164.7040  0.00  0.00     0.000 C
ATOM      3  C3  A00 X   1      35.210 154.287 165.2190  0.00  0.00     0.000 C
ATOM      4  C4  A00 X   1      33.921 154.489 166.0570  0.00  0.00     0.000 C
ATOM      5  C5  A00 X   1      33.849 155.883 166.6790  0.00  0.00     0.000 C
ATOM      6  O5  A00 X   1      33.812 156.786 165.5520  0.00  0.00     0.000 O
ATOM      7   O  A00 X   1      36.131 153.591 166.0550  0.00  0.00     0.000 O
ATOM      9  HD  A00 X   1      35.354 153.539 166.4330  0.00  0.00     0.000 HD
ATOM      9   O  A00 X   1      32.749 154.247 165.2780  0.00  0.00     0.000 O
ATOM     11  HD  A00 X   1      31.972 154.195 165.6560  0.00  0.00     0.000 HD
ENDROOT
BRANCH 2 11
ATOM     11   O  A00 X   1      36.296 155.409 163.3340  0.00  0.00     0.000 O
ATOM     12   O  A00 X   1      37.427 153.419 162.6070  0.00  0.00     0.000 OA
ATOM     13   O  A00 X   1      38.514 154.886 164.2140  0.00  0.00     0.000 OA
ATOM     14   O  A00 X   1      38.181 155.596 161.9680  0.00  0.00     0.000 OA
ATOM     15   S  A00 X   1      37.695 154.768 163.0390  0.00  0.00     0.000 S
ENDBRANCH 2 11
BRANCH 5 16
ATOM     16   C  A00 X   1      34.960 156.202 167.6850  0.00  0.00     0.000 C
ATOM     17   O  A00 X   1      35.075 157.343 168.0810  0.00  0.00     0.000 OA
ATOM     18   O  A00 X   1      35.722 155.354 168.1040  0.00  0.00     0.000 OA
ENDBRANCH 5 16
BRANCH 1 19
ATOM     19  O4  A00 X   2      35.795 158.059 165.1300  0.00  0.00     0.000 O
BRANCH 19 23
ATOM     20  C1  A00 X   2      33.731 160.636 162.3980  0.00  0.00     0.000 C
ATOM     21  C2  A00 X   2      35.086 160.046 161.9380  0.00  0.00     0.000 C
ATOM     22  C3  A00 X   2      35.482 158.835 162.8090  0.00  0.00     0.000 C
ATOM     23  C4  A00 X   2      35.470 159.216 164.3070  0.00  0.00     0.000 C
ATOM     24  C5  A00 X   2      34.073 159.808 164.6360  0.00  0.00     0.000 C
ATOM     25  O5  A00 X   2      33.854 160.978 163.8040  0.00  0.00     0.000 O
ATOM     26   O  A00 X   2      36.708 158.283 162.3010  0.00  0.00     0.000 O
ATOM     28  HD  A00 X   2      37.107 159.051 162.2880  0.00  0.00     0.000 HD
BRANCH 21 30
ATOM     28   N  A00 X   2      35.342 161.295 161.2150  0.00  0.00     0.000 N
ATOM     30  HD  A00 X   2      35.901 160.709 160.9090  0.00  0.00     0.000 HD
ATOM     30   O  A00 X   2      36.617 160.792 159.3230  0.00  0.00     0.000 OA
ATOM     31   S  A00 X   2      36.757 161.506 160.5430  0.00  0.00     0.000 S
ATOM     32   O  A00 X   2      36.857 162.926 160.4030  0.00  0.00     0.000 OA
ATOM     33   O  A00 X   2      37.740 161.026 161.4670  0.00  0.00     0.000 OA
ENDBRANCH 21 30
BRANCH 24 34
ATOM     34   C  A00 X   2      33.721 160.058 166.1210  0.00  0.00     0.000 C
ATOM     35   O  A00 X   2      33.051 163.345 167.5360  0.00  0.00     0.000 OA
ATOM     36   O  A00 X   2      33.859 161.451 166.4640  0.00  0.00     0.000 O
ATOM     37   O  A00 X   2      31.886 162.439 165.6890  0.00  0.00     0.000 OA
ATOM     38   S  A00 X   2      32.535 162.160 166.9330  0.00  0.00     0.000 S
ATOM     39   O  A00 X   2      31.887 161.254 167.8320  0.00  0.00     0.000 OA
ENDBRANCH 24 34
BRANCH 20 40
ATOM     40  O4  A00 X   3      32.774 159.577 162.2440  0.00  0.00     0.000 O
BRANCH 40 44
ATOM     41  C1  A00 X   3      29.978 157.745 163.6420  0.00  0.00     0.000 C
ATOM     42  C2  A00 X   3      30.652 157.427 162.2890  0.00  0.00     0.000 C
ATOM     43  C3  A00 X   3      30.761 158.699 161.4100  0.00  0.00     0.000 C
ATOM     44  C4  A00 X   3      31.374 159.904 162.1130  0.00  0.00     0.000 C
ATOM     45  C5  A00 X   3      30.642 160.163 163.4600  0.00  0.00     0.000 C
ATOM     46  O5  A00 X   3      30.552 158.934 164.2510  0.00  0.00     0.000 O
ATOM     47   O  A00 X   3      31.290 158.507 160.0990  0.00  0.00     0.000 O
ATOM     49  HD  A00 X   3      31.679 159.262 160.2680  0.00  0.00     0.000 HD
BRANCH 42 49
ATOM     49   O  A00 X   3      31.954 156.875 162.5840  0.00  0.00     0.000 O
ATOM     50   O  A00 X   3      33.842 156.120 161.3210  0.00  0.00     0.000 OA
ATOM     51   O  A00 X   3      31.671 155.557 160.5740  0.00  0.00     0.000 OA
ATOM     52   O  A00 X   3      32.461 154.582 162.5770  0.00  0.00     0.000 OA
ATOM     53   S  A00 X   3      32.531 155.715 161.7200  0.00  0.00     0.000 S
ENDBRANCH 42 49
BRANCH 45 54
ATOM     54   C  A00 X   3      29.284 160.843 163.2460  0.00  0.00     0.000 C
ATOM     55   O  A00 X   3      28.616 161.202 164.1940  0.00  0.00     0.000 OA
ATOM     56   O  A00 X   3      28.851 161.034 162.1200  0.00  0.00     0.000 OA
ENDBRANCH 45 54
BRANCH 41 57
ATOM     57  O4  A00 X   4      28.538 157.782 163.5250  0.00  0.00     0.000 O
BRANCH 57 61
ATOM     58  C1  A00 X   4      25.343 156.690 166.2160  0.00  0.00     0.000 C
ATOM     59  C2  A00 X   4      26.310 157.825 166.6360  0.00  0.00     0.000 C
ATOM     60  C3  A00 X   4      27.166 158.365 165.4720  0.00  0.00     0.000 C
ATOM     61  C4  A00 X   4      27.813 157.224 164.6580  0.00  0.00     0.000 C
ATOM     62  C5  A00 X   4      26.649 156.330 164.1610  0.00  0.00     0.000 C
ATOM     63  O5  A00 X   4      25.966 155.756 165.3050  0.00  0.00     0.000 O
BRANCH 59 66
ATOM     64   N  A00 X   4      27.328 157.530 167.6600  0.00  0.00     0.000 N
ATOM     66  HD  A00 X   4      27.656 156.729 167.6790  0.00  0.00     0.000 HD
ATOM     66   O  A00 X   4      25.574 157.682 169.3030  0.00  0.00     0.000 OA
ATOM     67   S  A00 X   4      26.987 157.867 169.1860  0.00  0.00     0.000 S
ATOM     68   O  A00 X   4      27.794 156.889 169.8540  0.00  0.00     0.000 OA
ATOM     69   O  A00 X   4      27.495 159.207 169.2700  0.00  0.00     0.000 OA
ENDBRANCH 59 66
BRANCH 62 70
ATOM     70   C  A00 X   4      27.092 155.179 163.2250  0.00  0.00     0.000 C
ATOM     71   O  A00 X   4      29.001 152.212 164.0350  0.00  0.00     0.000 OA
ATOM     72   O  A00 X   4      29.269 153.783 162.3020  0.00  0.00     0.000 OA
ATOM     73   O  A00 X   4      27.610 154.097 164.0150  0.00  0.00     0.000 O
ATOM     74   O  A00 X   4      29.939 154.368 164.5700  0.00  0.00     0.000 OA
ATOM     75   S  A00 X   4      29.073 153.612 163.7240  0.00  0.00     0.000 S
ENDBRANCH 62 70
ENDBRANCH 57 61
ENDBRANCH 41 57
ENDBRANCH 40 44
ENDBRANCH 20 40
ENDBRANCH 19 23
ENDBRANCH 1 19
TORSDOF 14
ENDMDL
MODEL 41
REMARK VINA RESULT:      -0.4    221.559    225.894
ROOT
ATOM      1  C1  A00 X   1       7.877 204.615 120.8610  0.00  0.00     0.000 C
ATOM      2  C2  A00 X   1       7.987 205.930 121.6780  0.00  0.00     0.000 C
ATOM      3  C3  A00 X   1       7.159 205.987 123.0040  0.00  0.00     0.000 C
ATOM      4  C4  A00 X   1       6.062 204.901 123.1540  0.00  0.00     0.000 C
ATOM      5  C5  A00 X   1       5.623 204.334 121.8040  0.00  0.00     0.000 C
ATOM      6  O5  A00 X   1       6.812 203.717 121.2610  0.00  0.00     0.000 O
ATOM      7   O  A00 X   1       6.494 207.246 123.0740  0.00  0.00     0.000 O
ATOM      9  HD  A00 X   1       5.933 206.645 123.3470  0.00  0.00     0.000 HD
ATOM      9   O  A00 X   1       6.492 203.840 124.0060  0.00  0.00     0.000 O
ATOM     11  HD  A00 X   1       5.931 203.239 124.2790  0.00  0.00     0.000 HD
ENDROOT
BRANCH 2 11
ATOM     11   O  A00 X   1       9.379 206.140 121.9850  0.00  0.00     0.000 O
ATOM     12   O  A00 X   1      10.103 207.875 123.4790  0.00  0.00     0.000 OA
ATOM     13   O  A00 X   1       9.008 208.480 121.3930  0.00  0.00     0.000 OA
ATOM     14   O  A00 X   1      11.176 207.501 121.3760  0.00  0.00     0.000 OA
ATOM     15   S  A00 X   1       9.923 207.607 122.0750  0.00  0.00     0.000 S
ENDBRANCH 2 11
BRANCH 5 16
ATOM     16   C  A00 X   1       4.970 205.346 120.8580  0.00  0.00     0.000 C
ATOM     17   O  A00 X   1       4.792 205.028 119.7000  0.00  0.00     0.000 OA
ATOM     18   O  A00 X   1       4.619 206.449 121.2250  0.00  0.00     0.000 OA
ENDBRANCH 5 16
BRANCH 1 19
ATOM     19  O4  A00 X   2       7.866 204.843 119.4300  0.00  0.00     0.000 O
BRANCH 19 23
ATOM     20  C1  A00 X   2      10.319 201.439 118.5580  0.00  0.00     0.000 C
ATOM     21  C2  A00 X   2      11.015 202.819 118.6400  0.00  0.00     0.000 C
ATOM     22  C3  A00 X   2      10.120 203.843 119.3690  0.00  0.00     0.000 C
ATOM     23  C4  A00 X   2       8.724 203.913 118.7100  0.00  0.00     0.000 C
ATOM     24  C5  A00 X   2       8.145 202.473 118.6720  0.00  0.00     0.000 C
ATOM     25  O5  A00 X   2       9.038 201.630 117.8990  0.00  0.00     0.000 O
ATOM     26   O  A00 X   2      10.837 205.085 119.4790  0.00  0.00     0.000 O
ATOM     28  HD  A00 X   2      11.042 205.099 118.6380  0.00  0.00     0.000 HD
BRANCH 21 30
ATOM     28   N  A00 X   2      11.929 202.379 117.5820  0.00  0.00     0.000 N
ATOM     30  HD  A00 X   2      12.285 203.080 117.9450  0.00  0.00     0.000 HD
ATOM     30   O  A00 X   2      13.995 203.414 117.9290  0.00  0.00     0.000 OA
ATOM     31   S  A00 X   2      12.945 203.426 116.9730  0.00  0.00     0.000 S
ATOM     32   O  A00 X   2      13.281 202.870 115.6990  0.00  0.00     0.000 OA
ATOM     33   O  A00 X   2      12.233 204.658 116.8050  0.00  0.00     0.000 OA
ENDBRANCH 21 30
BRANCH 24 34
ATOM     34   C  A00 X   2       6.662 202.298 118.2680  0.00  0.00     0.000 C
ATOM     35   O  A00 X   2       5.259 203.431 115.1050  0.00  0.00     0.000 OA
ATOM     36   O  A00 X   2       6.322 203.139 117.1480  0.00  0.00     0.000 O
ATOM     37   O  A00 X   2       7.110 201.969 115.2820  0.00  0.00     0.000 OA
ATOM     38   S  A00 X   2       5.862 202.376 115.8520  0.00  0.00     0.000 S
ATOM     39   O  A00 X   2       4.963 201.348 116.2840  0.00  0.00     0.000 OA
ENDBRANCH 24 34
BRANCH 20 40
ATOM     40  O4  A00 X   3      10.102 201.033 119.9170  0.00  0.00     0.000 O
BRANCH 40 44
ATOM     41  C1  A00 X   3       7.848 199.597 122.3630  0.00  0.00     0.000 C
ATOM     42  C2  A00 X   3       9.272 200.108 122.6720  0.00  0.00     0.000 C
ATOM     43  C3  A00 X   3      10.305 199.502 121.6870  0.00  0.00     0.000 C
ATOM     44  C4  A00 X   3       9.930 199.631 120.2160  0.00  0.00     0.000 C
ATOM     45  C5  A00 X   3       8.490 199.093 119.9850  0.00  0.00     0.000 C
ATOM     46  O5  A00 X   3       7.551 199.684 120.9420  0.00  0.00     0.000 O
ATOM     47   O  A00 X   3      11.670 199.836 121.9320  0.00  0.00     0.000 O
ATOM     49  HD  A00 X   3      11.698 199.877 121.0670  0.00  0.00     0.000 HD
BRANCH 42 49
ATOM     49   O  A00 X   3       9.235 201.549 122.5760  0.00  0.00     0.000 O
ATOM     50   O  A00 X   3      10.812 203.339 122.7690  0.00  0.00     0.000 OA
ATOM     51   O  A00 X   3      10.931 201.544 124.3030  0.00  0.00     0.000 OA
ATOM     52   O  A00 X   3       9.073 203.001 124.4140  0.00  0.00     0.000 OA
ATOM     53   S  A00 X   3      10.058 202.424 123.5660  0.00  0.00     0.000 S
ENDBRANCH 42 49
BRANCH 45 54
ATOM     54   C  A00 X   3       8.452 197.560 119.9710  0.00  0.00     0.000 C
ATOM     55   O  A00 X   3       9.428 196.914 120.2940  0.00  0.00     0.000 OA
ATOM     56   O  A00 X   3       7.442 196.963 119.6340  0.00  0.00     0.000 OA
ENDBRANCH 45 54
BRANCH 41 57
ATOM     57  O4  A00 X   4       7.615 198.290 122.9330  0.00  0.00     0.000 O
BRANCH 57 61
ATOM     58  C1  A00 X   4       4.100 196.370 124.5450  0.00  0.00     0.000 C
ATOM     59  C2  A00 X   4       4.095 196.796 123.0550  0.00  0.00     0.000 C
ATOM     60  C3  A00 X   4       5.497 197.130 122.5070  0.00  0.00     0.000 C
ATOM     61  C4  A00 X   4       6.272 198.073 123.4530  0.00  0.00     0.000 C
ATOM     62  C5  A00 X   4       6.338 197.356 124.8240  0.00  0.00     0.000 C
ATOM     63  O5  A00 X   4       4.992 197.185 125.3380  0.00  0.00     0.000 O
BRANCH 59 66
ATOM     64   N  A00 X   4       3.300 198.026 122.8910  0.00  0.00     0.000 N
ATOM     66  HD  A00 X   4       3.246 198.561 123.5700  0.00  0.00     0.000 HD
ATOM     66   O  A00 X   4       1.336 196.632 122.8540  0.00  0.00     0.000 OA
ATOM     67   S  A00 X   4       1.797 197.891 122.3580  0.00  0.00     0.000 S
ATOM     68   O  A00 X   4       1.204 199.047 122.9630  0.00  0.00     0.000 OA
ATOM     69   O  A00 X   4       2.018 198.014 120.9450  0.00  0.00     0.000 OA
ENDBRANCH 59 66
BRANCH 62 70
ATOM     70   C  A00 X   4       7.179 198.102 125.8880  0.00  0.00     0.000 C
ATOM     71   O  A00 X   4       6.457 201.233 127.5540  0.00  0.00     0.000 OA
ATOM     72   O  A00 X   4       8.409 200.487 126.4700  0.00  0.00     0.000 OA
ATOM     73   O  A00 X   4       6.398 199.169 126.4490  0.00  0.00     0.000 O
ATOM     74   O  A00 X   4       6.490 201.192 125.1440  0.00  0.00     0.000 OA
ATOM     75   S  A00 X   4       6.974 200.625 126.3610  0.00  0.00     0.000 S
ENDBRANCH 62 70
ENDBRANCH 57 61
ENDBRANCH 41 57
ENDBRANCH 40 44
ENDBRANCH 20 40
ENDBRANCH 19 23
ENDBRANCH 1 19
TORSDOF 14
ENDMDL
MODEL 42
REMARK VINA RESULT:      -0.4    136.747    142.089
ROOT
ATOM      1  C1  A00 X   1      52.466 120.799  10.6170  0.00  0.00     0.000 C
ATOM      2  C2  A00 X   1      51.695 120.370  11.8940  0.00  0.00     0.000 C
ATOM      3  C3  A00 X   1      50.545 121.324  12.3550  0.00  0.00     0.000 C
ATOM      4  C4  A00 X   1      50.553 122.738  11.7180  0.00  0.00     0.000 C
ATOM      5  C5  A00 X   1      51.937 123.129  11.1990  0.00  0.00     0.000 C
ATOM      6  O5  A00 X   1      52.231 122.157  10.1700  0.00  0.00     0.000 O
ATOM      7   O  A00 X   1      50.646 121.515  13.7640  0.00  0.00     0.000 O
ATOM      9  HD  A00 X   1      50.456 122.285  13.4160  0.00  0.00     0.000 HD
ATOM      9   O  A00 X   1      49.596 122.841  10.6640  0.00  0.00     0.000 O
ATOM     11  HD  A00 X   1      49.406 123.611  10.3160  0.00  0.00     0.000 HD
ENDROOT
BRANCH 2 11
ATOM     11   O  A00 X   1      51.149 119.058  11.6560  0.00  0.00     0.000 O
ATOM     12   O  A00 X   1      49.595 118.035  13.1750  0.00  0.00     0.000 OA
ATOM     13   O  A00 X   1      51.859 118.509  13.9280  0.00  0.00     0.000 OA
ATOM     14   O  A00 X   1      51.461 116.832  12.2890  0.00  0.00     0.000 OA
ATOM     15   S  A00 X   1      51.002 118.068  12.8630  0.00  0.00     0.000 S
ENDBRANCH 2 11
BRANCH 5 16
ATOM     16   C  A00 X   1      53.025 123.234  12.2710  0.00  0.00     0.000 C
ATOM     17   O  A00 X   1      54.183 123.324  11.9180  0.00  0.00     0.000 OA
ATOM     18   O  A00 X   1      52.771 123.238  13.4590  0.00  0.00     0.000 OA
ENDBRANCH 5 16
BRANCH 1 19
ATOM     19  O4  A00 X   2      53.883 120.506  10.6920  0.00  0.00     0.000 O
BRANCH 19 23
ATOM     20  C1  A00 X   2      54.154 119.258   6.6010  0.00  0.00     0.000 C
ATOM     21  C2  A00 X   2      54.008 118.154   7.6760  0.00  0.00     0.000 C
ATOM     22  C3  A00 X   2      53.495 118.747   9.0060  0.00  0.00     0.000 C
ATOM     23  C4  A00 X   2      54.397 119.915   9.4640  0.00  0.00     0.000 C
ATOM     24  C5  A00 X   2      54.478 120.938   8.2980  0.00  0.00     0.000 C
ATOM     25  O5  A00 X   2      55.041 120.277   7.1350  0.00  0.00     0.000 O
ATOM     26   O  A00 X   2      53.310 117.676   9.9470  0.00  0.00     0.000 O
ATOM     28  HD  A00 X   2      54.101 117.350   9.8080  0.00  0.00     0.000 HD
BRANCH 21 30
ATOM     28   N  A00 X   2      54.864 117.293   6.8560  0.00  0.00     0.000 N
ATOM     30  HD  A00 X   2      54.472 116.780   7.4330  0.00  0.00     0.000 HD
ATOM     30   O  A00 X   2      54.196 115.078   7.1830  0.00  0.00     0.000 OA
ATOM     31   S  A00 X   2      55.324 115.899   7.4440  0.00  0.00     0.000 S
ATOM     32   O  A00 X   2      56.492 115.580   6.6830  0.00  0.00     0.000 OA
ATOM     33   O  A00 X   2      55.669 116.113   8.8180  0.00  0.00     0.000 OA
ENDBRANCH 21 30
BRANCH 24 34
ATOM     34   C  A00 X   2      55.133 122.310   8.5810  0.00  0.00     0.000 C
ATOM     35   O  A00 X   2      58.194 123.477   6.9900  0.00  0.00     0.000 OA
ATOM     36   O  A00 X   2      56.489 122.352   8.0940  0.00  0.00     0.000 O
ATOM     37   O  A00 X   2      56.273 122.773   5.8030  0.00  0.00     0.000 OA
ATOM     38   S  A00 X   2      56.769 123.424   6.9770  0.00  0.00     0.000 S
ATOM     39   O  A00 X   2      56.113 124.626   7.3970  0.00  0.00     0.000 OA
ENDBRANCH 24 34
BRANCH 20 40
ATOM     40  O4  A00 X   3      52.840 119.808   6.4280  0.00  0.00     0.000 O
BRANCH 40 44
ATOM     41  C1  A00 X   3      50.780 122.765   6.0660  0.00  0.00     0.000 C
ATOM     42  C2  A00 X   3      50.243 121.318   6.1090  0.00  0.00     0.000 C
ATOM     43  C3  A00 X   3      50.999 120.415   5.1010  0.00  0.00     0.000 C
ATOM     44  C4  A00 X   3      52.518 120.492   5.1980  0.00  0.00     0.000 C
ATOM     45  C5  A00 X   3      52.980 121.975   5.1430  0.00  0.00     0.000 C
ATOM     46  O5  A00 X   3      52.233 122.792   6.1020  0.00  0.00     0.000 O
ATOM     47   O  A00 X   3      50.528 119.073   4.9910  0.00  0.00     0.000 O
ATOM     49  HD  A00 X   3      51.375 118.900   4.9330  0.00  0.00     0.000 HD
BRANCH 42 49
ATOM     49   O  A00 X   3      50.404 120.847   7.4640  0.00  0.00     0.000 O
ATOM     50   O  A00 X   3      49.993 118.809   8.6510  0.00  0.00     0.000 OA
ATOM     51   O  A00 X   3      48.390 119.561   7.0840  0.00  0.00     0.000 OA
ATOM     52   O  A00 X   3      48.693 120.804   9.0720  0.00  0.00     0.000 OA
ATOM     53   S  A00 X   3      49.315 119.949   8.1200  0.00  0.00     0.000 S
ENDBRANCH 42 49
BRANCH 45 54
ATOM     54   C  A00 X   3      52.936 122.530   3.7140  0.00  0.00     0.000 C
ATOM     55   O  A00 X   3      52.411 121.898   2.8200  0.00  0.00     0.000 OA
ATOM     56   O  A00 X   3      53.429 123.616   3.4500  0.00  0.00     0.000 OA
ENDBRANCH 45 54
BRANCH 41 57
ATOM     57  O4  A00 X   4      50.206 123.515   4.9720  0.00  0.00     0.000 O
BRANCH 57 61
ATOM     58  C1  A00 X   4      49.124 127.669   4.5040  0.00  0.00     0.000 C
ATOM     59  C2  A00 X   4      50.609 127.315   4.7680  0.00  0.00     0.000 C
ATOM     60  C3  A00 X   4      50.931 125.821   4.5600  0.00  0.00     0.000 C
ATOM     61  C4  A00 X   4      49.906 124.909   5.2680  0.00  0.00     0.000 C
ATOM     62  C5  A00 X   4      48.517 125.291   4.6990  0.00  0.00     0.000 C
ATOM     63  O5  A00 X   4      48.225 126.671   5.0400  0.00  0.00     0.000 O
BRANCH 59 66
ATOM     64   N  A00 X   4      50.980 127.595   6.1670  0.00  0.00     0.000 N
ATOM     66  HD  A00 X   4      50.355 127.547   6.7640  0.00  0.00     0.000 HD
ATOM     66   O  A00 X   4      51.255 129.900   5.5260  0.00  0.00     0.000 OA
ATOM     67   S  A00 X   4      51.746 128.963   6.4870  0.00  0.00     0.000 S
ATOM     68   O  A00 X   4      51.322 129.186   7.8390  0.00  0.00     0.000 OA
ATOM     69   O  A00 X   4      53.107 128.527   6.3620  0.00  0.00     0.000 OA
ENDBRANCH 59 66
BRANCH 62 70
ATOM     70   C  A00 X   4      47.358 124.403   5.2120  0.00  0.00     0.000 C
ATOM     71   O  A00 X   4      45.927 124.246   8.5340  0.00  0.00     0.000 OA
ATOM     72   O  A00 X   4      46.665 122.531   7.0990  0.00  0.00     0.000 OA
ATOM     73   O  A00 X   4      46.962 124.847   6.5190  0.00  0.00     0.000 O
ATOM     74   O  A00 X   4      48.299 123.896   8.2830  0.00  0.00     0.000 OA
ATOM     75   S  A00 X   4      47.004 123.806   7.6920  0.00  0.00     0.000 S
ENDBRANCH 62 70
ENDBRANCH 57 61
ENDBRANCH 41 57
ENDBRANCH 40 44
ENDBRANCH 20 40
ENDBRANCH 19 23
ENDBRANCH 1 19
TORSDOF 14
ENDMDL
MODEL 43
REMARK VINA RESULT:      -0.4    182.755    187.411
ROOT
ATOM      1  C1  A00 X   1      66.775 189.926 130.7080  0.00  0.00     0.000 C
ATOM      2  C2  A00 X   1      66.205 189.967 129.2660  0.00  0.00     0.000 C
ATOM      3  C3  A00 X   1      64.692 190.342 129.1350  0.00  0.00     0.000 C
ATOM      4  C4  A00 X   1      63.868 190.267 130.4470  0.00  0.00     0.000 C
ATOM      5  C5  A00 X   1      64.514 189.345 131.4810  0.00  0.00     0.000 C
ATOM      6  O5  A00 X   1      65.791 189.956 131.7720  0.00  0.00     0.000 O
ATOM      7   O  A00 X   1      64.075 189.442 128.2170  0.00  0.00     0.000 O
ATOM      9  HD  A00 X   1      63.522 189.555 128.8750  0.00  0.00     0.000 HD
ATOM      9   O  A00 X   1      63.669 191.562 131.0130  0.00  0.00     0.000 O
ATOM     11  HD  A00 X   1      63.117 191.674 131.6700  0.00  0.00     0.000 HD
ENDROOT
BRANCH 2 11
ATOM     11   O  A00 X   1      66.989 190.910 128.5100  0.00  0.00     0.000 O
ATOM     12   O  A00 X   1      66.388 191.564 126.2790  0.00  0.00     0.000 OA
ATOM     13   O  A00 X   1      66.996 189.250 126.7190  0.00  0.00     0.000 OA
ATOM     14   O  A00 X   1      68.631 190.972 126.8520  0.00  0.00     0.000 OA
ATOM     15   S  A00 X   1      67.238 190.641 126.9860  0.00  0.00     0.000 S
ENDBRANCH 2 11
BRANCH 5 16
ATOM     16   C  A00 X   1      64.619 187.875 131.0620  0.00  0.00     0.000 C
ATOM     17   O  A00 X   1      65.305 187.128 131.7290  0.00  0.00     0.000 OA
ATOM     18   O  A00 X   1      64.037 187.430 130.0930  0.00  0.00     0.000 OA
ENDBRANCH 5 16
BRANCH 1 19
ATOM     19  O4  A00 X   2      67.732 188.856 130.9040  0.00  0.00     0.000 O
BRANCH 19 23
ATOM     20  C1  A00 X   2      70.348 191.224 133.3360  0.00  0.00     0.000 C
ATOM     21  C2  A00 X   2      70.698 191.085 131.8340  0.00  0.00     0.000 C
ATOM     22  C3  A00 X   2      69.478 190.595 131.0280  0.00  0.00     0.000 C
ATOM     23  C4  A00 X   2      68.914 189.290 131.6360  0.00  0.00     0.000 C
ATOM     24  C5  A00 X   2      68.622 189.554 133.1380  0.00  0.00     0.000 C
ATOM     25  O5  A00 X   2      69.860 189.935 133.7940  0.00  0.00     0.000 O
ATOM     26   O  A00 X   2      69.833 190.549 129.6360  0.00  0.00     0.000 O
ATOM     28  HD  A00 X   2      70.557 190.098 129.7840  0.00  0.00     0.000 HD
BRANCH 21 30
ATOM     28   N  A00 X   2      72.118 191.110 132.2010  0.00  0.00     0.000 N
ATOM     30  HD  A00 X   2      72.077 191.259 131.3490  0.00  0.00     0.000 HD
ATOM     30   O  A00 X   2      73.303 192.116 130.4570  0.00  0.00     0.000 OA
ATOM     31   S  A00 X   2      73.196 190.843 131.0770  0.00  0.00     0.000 S
ATOM     32   O  A00 X   2      74.353 190.429 131.8090  0.00  0.00     0.000 OA
ATOM     33   O  A00 X   2      72.708 189.766 130.2680  0.00  0.00     0.000 OA
ENDBRANCH 21 30
BRANCH 24 34
ATOM     34   C  A00 X   2      67.837 188.478 133.9250  0.00  0.00     0.000 C
ATOM     35   O  A00 X   2      68.909 185.015 134.2720  0.00  0.00     0.000 OA
ATOM     36   O  A00 X   2      68.299 187.151 133.5990  0.00  0.00     0.000 O
ATOM     37   O  A00 X   2      70.233 186.877 134.8850  0.00  0.00     0.000 OA
ATOM     38   S  A00 X   2      68.909 186.340 134.8000  0.00  0.00     0.000 S
ATOM     39   O  A00 X   2      68.035 186.549 135.9150  0.00  0.00     0.000 OA
ENDBRANCH 24 34
BRANCH 20 40
ATOM     40  O4  A00 X   3      69.288 192.189 133.3990  0.00  0.00     0.000 O
BRANCH 40 44
ATOM     41  C1  A00 X   3      66.060 193.060 134.7940  0.00  0.00     0.000 C
ATOM     42  C2  A00 X   3      66.835 193.914 133.7670  0.00  0.00     0.000 C
ATOM     43  C3  A00 X   3      68.296 194.150 134.2300  0.00  0.00     0.000 C
ATOM     44  C4  A00 X   3      69.042 192.886 134.6400  0.00  0.00     0.000 C
ATOM     45  C5  A00 X   3      68.204 192.085 135.6760  0.00  0.00     0.000 C
ATOM     46  O5  A00 X   3      66.831 191.896 135.2030  0.00  0.00     0.000 O
ATOM     47   O  A00 X   3      69.082 195.001 133.3990  0.00  0.00     0.000 O
ATOM     49  HD  A00 X   3      69.701 194.425 133.5880  0.00  0.00     0.000 HD
BRANCH 42 49
ATOM     49   O  A00 X   3      66.787 193.208 132.5080  0.00  0.00     0.000 O
ATOM     50   O  A00 X   3      67.681 193.523 130.3100  0.00  0.00     0.000 OA
ATOM     51   O  A00 X   3      66.812 195.393 131.4680  0.00  0.00     0.000 OA
ATOM     52   O  A00 X   3      65.311 193.713 130.7530  0.00  0.00     0.000 OA
ATOM     53   S  A00 X   3      66.641 193.992 131.1720  0.00  0.00     0.000 S
ENDBRANCH 42 49
BRANCH 45 54
ATOM     54   C  A00 X   3      68.279 192.712 137.0730  0.00  0.00     0.000 C
ATOM     55   O  A00 X   3      68.772 193.811 137.2330  0.00  0.00     0.000 OA
ATOM     56   O  A00 X   3      67.848 192.119 138.0490  0.00  0.00     0.000 OA
ENDBRANCH 45 54
BRANCH 41 57
ATOM     57  O4  A00 X   4      65.576 193.859 135.8970  0.00  0.00     0.000 O
BRANCH 57 61
ATOM     58  C1  A00 X   4      62.035 193.635 138.3560  0.00  0.00     0.000 C
ATOM     59  C2  A00 X   4      63.026 192.443 138.3720  0.00  0.00     0.000 C
ATOM     60  C3  A00 X   4      64.399 192.778 137.7560  0.00  0.00     0.000 C
ATOM     61  C4  A00 X   4      64.258 193.492 136.3940  0.00  0.00     0.000 C
ATOM     62  C5  A00 X   4      63.410 194.762 136.6540  0.00  0.00     0.000 C
ATOM     63  O5  A00 X   4      62.091 194.370 137.1120  0.00  0.00     0.000 O
BRANCH 59 66
ATOM     64   N  A00 X   4      62.489 191.333 137.5640  0.00  0.00     0.000 N
ATOM     66  HD  A00 X   4      61.955 191.534 136.9130  0.00  0.00     0.000 HD
ATOM     66   O  A00 X   4      61.169 190.710 139.4790  0.00  0.00     0.000 OA
ATOM     67   S  A00 X   4      61.771 190.122 138.3230  0.00  0.00     0.000 S
ATOM     68   O  A00 X   4      60.858 189.685 137.3070  0.00  0.00     0.000 OA
ATOM     69   O  A00 X   4      62.892 189.248 138.5230  0.00  0.00     0.000 OA
ENDBRANCH 59 66
BRANCH 62 70
ATOM     70   C  A00 X   4      63.249 195.678 135.4180  0.00  0.00     0.000 C
ATOM     71   O  A00 X   4      61.369 195.071 132.3840  0.00  0.00     0.000 OA
ATOM     72   O  A00 X   4      63.583 195.809 132.6950  0.00  0.00     0.000 OA
ATOM     73   O  A00 X   4      62.222 195.147 134.5640  0.00  0.00     0.000 O
ATOM     74   O  A00 X   4      63.036 193.461 133.0480  0.00  0.00     0.000 OA
ATOM     75   S  A00 X   4      62.600 194.820 133.0780  0.00  0.00     0.000 S
ENDBRANCH 62 70
ENDBRANCH 57 61
ENDBRANCH 41 57
ENDBRANCH 40 44
ENDBRANCH 20 40
ENDBRANCH 19 23
ENDBRANCH 1 19
TORSDOF 14
ENDMDL
MODEL 44
REMARK VINA RESULT:      -0.4    203.107    208.800
ROOT
ATOM      1  C1  A00 X   1     197.750 200.143 195.2250  0.00  0.00     0.000 C
ATOM      2  C2  A00 X   1     196.273 200.353 194.7970  0.00  0.00     0.000 C
ATOM      3  C3  A00 X   1     195.543 199.100 194.2110  0.00  0.00     0.000 C
ATOM      4  C4  A00 X   1     196.464 197.926 193.7890  0.00  0.00     0.000 C
ATOM      5  C5  A00 X   1     197.894 198.386 193.5100  0.00  0.00     0.000 C
ATOM      6  O5  A00 X   1     198.364 198.911 194.7720  0.00  0.00     0.000 O
ATOM      7   O  A00 X   1     194.827 199.493 193.0420  0.00  0.00     0.000 O
ATOM      9  HD  A00 X   1     195.193 198.727 192.8710  0.00  0.00     0.000 HD
ATOM      9   O  A00 X   1     196.473 196.891 194.7720  0.00  0.00     0.000 O
ATOM     11  HD  A00 X   1     196.839 196.125 194.6010  0.00  0.00     0.000 HD
ENDROOT
BRANCH 2 11
ATOM     11   O  A00 X   1     195.546 200.824 195.9490  0.00  0.00     0.000 O
ATOM     12   O  A00 X   1     193.154 201.040 195.9390  0.00  0.00     0.000 OA
ATOM     13   O  A00 X   1     194.481 202.424 194.4420  0.00  0.00     0.000 OA
ATOM     14   O  A00 X   1     194.568 202.768 196.7930  0.00  0.00     0.000 OA
ATOM     15   S  A00 X   1     194.351 201.816 195.7370  0.00  0.00     0.000 S
ENDBRANCH 2 11
BRANCH 5 16
ATOM     16   C  A00 X   1     198.043 199.369 192.3440  0.00  0.00     0.000 C
ATOM     17   O  A00 X   1     199.104 199.940 192.1970  0.00  0.00     0.000 OA
ATOM     18   O  A00 X   1     197.142 199.592 191.5610  0.00  0.00     0.000 OA
ENDBRANCH 5 16
BRANCH 1 19
ATOM     19  O4  A00 X   2     198.587 201.288 194.9320  0.00  0.00     0.000 O
BRANCH 19 23
ATOM     20  C1  A00 X   2     200.835 200.963 198.5660  0.00  0.00     0.000 C
ATOM     21  C2  A00 X   2     199.666 201.976 198.5380  0.00  0.00     0.000 C
ATOM     22  C3  A00 X   2     198.708 201.678 197.3650  0.00  0.00     0.000 C
ATOM     23  C4  A00 X   2     199.484 201.620 196.0300  0.00  0.00     0.000 C
ATOM     24  C5  A00 X   2     200.634 200.589 196.1940  0.00  0.00     0.000 C
ATOM     25  O5  A00 X   2     201.500 201.022 197.2760  0.00  0.00     0.000 O
ATOM     26   O  A00 X   2     197.606 202.600 197.4230  0.00  0.00     0.000 O
ATOM     28  HD  A00 X   2     198.123 203.291 197.4930  0.00  0.00     0.000 HD
BRANCH 21 30
ATOM     28   N  A00 X   2     200.451 202.850 199.4140  0.00  0.00     0.000 N
ATOM     30  HD  A00 X   2     199.634 203.137 199.4420  0.00  0.00     0.000 HD
ATOM     30   O  A00 X   2     198.969 204.035 200.7780  0.00  0.00     0.000 OA
ATOM     31   S  A00 X   2     199.899 204.296 199.7370  0.00  0.00     0.000 S
ATOM     32   O  A00 X   2     201.065 205.023 200.1360  0.00  0.00     0.000 OA
ATOM     33   O  A00 X   2     199.374 204.830 198.5160  0.00  0.00     0.000 OA
ENDBRANCH 21 30
BRANCH 24 34
ATOM     34   C  A00 X   2     201.422 200.173 194.9290  0.00  0.00     0.000 C
ATOM     35   O  A00 X   2     203.176 202.511 192.7570  0.00  0.00     0.000 OA
ATOM     36   O  A00 X   2     201.701 201.311 194.0900  0.00  0.00     0.000 O
ATOM     37   O  A00 X   2     203.561 202.324 195.0830  0.00  0.00     0.000 OA
ATOM     38   S  A00 X   2     203.227 201.629 193.8770  0.00  0.00     0.000 S
ATOM     39   O  A00 X   2     203.872 200.374 193.6340  0.00  0.00     0.000 OA
ENDBRANCH 24 34
BRANCH 20 40
ATOM     40  O4  A00 X   3     200.228 199.674 198.7350  0.00  0.00     0.000 O
BRANCH 40 44
ATOM     41  C1  A00 X   3     200.104 196.189 197.7520  0.00  0.00     0.000 C
ATOM     42  C2  A00 X   3     199.168 196.845 198.7900  0.00  0.00     0.000 C
ATOM     43  C3  A00 X   3     199.980 197.625 199.8560  0.00  0.00     0.000 C
ATOM     44  C4  A00 X   3     201.009 198.592 199.2850  0.00  0.00     0.000 C
ATOM     45  C5  A00 X   3     201.914 197.859 198.2560  0.00  0.00     0.000 C
ATOM     46  O5  A00 X   3     201.107 197.129 197.2760  0.00  0.00     0.000 O
ATOM     47   O  A00 X   3     199.222 198.201 200.9180  0.00  0.00     0.000 O
ATOM     49  HD  A00 X   3     199.785 198.851 200.8160  0.00  0.00     0.000 HD
BRANCH 42 49
ATOM     49   O  A00 X   3     198.275 197.718 198.0630  0.00  0.00     0.000 O
ATOM     50   O  A00 X   3     196.520 199.249 198.6140  0.00  0.00     0.000 OA
ATOM     51   O  A00 X   3     196.634 197.184 199.7590  0.00  0.00     0.000 OA
ATOM     52   O  A00 X   3     196.072 197.170 197.4640  0.00  0.00     0.000 OA
ATOM     53   S  A00 X   3     196.784 197.850 198.4900  0.00  0.00     0.000 S
ENDBRANCH 42 49
BRANCH 45 54
ATOM     54   C  A00 X   3     202.964 196.981 198.9470  0.00  0.00     0.000 C
ATOM     55   O  A00 X   3     202.955 196.839 200.1520  0.00  0.00     0.000 OA
ATOM     56   O  A00 X   3     203.828 196.411 198.2980  0.00  0.00     0.000 OA
ENDBRANCH 45 54
BRANCH 41 57
ATOM     57  O4  A00 X   4     200.651 194.943 198.2380  0.00  0.00     0.000 O
BRANCH 57 61
ATOM     58  C1  A00 X   4     201.739 191.250 196.2840  0.00  0.00     0.000 C
ATOM     59  C2  A00 X   4     202.477 192.550 195.8780  0.00  0.00     0.000 C
ATOM     60  C3  A00 X   4     202.271 193.711 196.8710  0.00  0.00     0.000 C
ATOM     61  C4  A00 X   4     200.782 193.894 197.2380  0.00  0.00     0.000 C
ATOM     62  C5  A00 X   4     200.307 192.538 197.8170  0.00  0.00     0.000 C
ATOM     63  O5  A00 X   4     200.411 191.518 196.7920  0.00  0.00     0.000 O
BRANCH 59 66
ATOM     64   N  A00 X   4     201.970 193.046 194.5850  0.00  0.00     0.000 N
ATOM     66  HD  A00 X   4     201.152 192.853 194.3770  0.00  0.00     0.000 HD
ATOM     66   O  A00 X   4     203.430 191.457 193.5160  0.00  0.00     0.000 OA
ATOM     67   S  A00 X   4     202.814 192.723 193.2660  0.00  0.00     0.000 S
ATOM     68   O  A00 X   4     201.769 192.717 192.2850  0.00  0.00     0.000 OA
ATOM     69   O  A00 X   4     203.661 193.881 193.2170  0.00  0.00     0.000 OA
ENDBRANCH 59 66
BRANCH 62 70
ATOM     70   C  A00 X   4     198.854 192.553 198.3500  0.00  0.00     0.000 C
ATOM     71   O  A00 X   4     195.764 192.834 196.4830  0.00  0.00     0.000 OA
ATOM     72   O  A00 X   4     196.519 193.999 198.3850  0.00  0.00     0.000 OA
ATOM     73   O  A00 X   4     197.942 192.430 197.2460  0.00  0.00     0.000 O
ATOM     74   O  A00 X   4     197.443 194.541 196.1960  0.00  0.00     0.000 OA
ATOM     75   S  A00 X   4     196.867 193.555 197.0530  0.00  0.00     0.000 S
ENDBRANCH 62 70
ENDBRANCH 57 61
ENDBRANCH 41 57
ENDBRANCH 40 44
ENDBRANCH 20 40
ENDBRANCH 19 23
ENDBRANCH 1 19
TORSDOF 14
ENDMDL
MODEL 45
REMARK VINA RESULT:      -0.4    210.512    214.649
ROOT
ATOM      1  C1  A00 X   1      11.708 117.813 197.1230  0.00  0.00     0.000 C
ATOM      2  C2  A00 X   1      11.102 118.545 195.8960  0.00  0.00     0.000 C
ATOM      3  C3  A00 X   1       9.885 117.843 195.2080  0.00  0.00     0.000 C
ATOM      4  C4  A00 X   1       9.667 116.356 195.5910  0.00  0.00     0.000 C
ATOM      5  C5  A00 X   1      10.945 115.702 196.1170  0.00  0.00     0.000 C
ATOM      6  O5  A00 X   1      11.271 116.444 197.3140  0.00  0.00     0.000 O
ATOM      7   O  A00 X   1      10.077 117.873 193.7960  0.00  0.00     0.000 O
ATOM      9  HD  A00 X   1       9.766 117.090 193.9950  0.00  0.00     0.000 HD
ATOM      9   O  A00 X   1       8.621 116.213 196.5520  0.00  0.00     0.000 O
ATOM     11  HD  A00 X   1       8.310 115.429 196.7500  0.00  0.00     0.000 HD
ENDROOT
BRANCH 2 11
ATOM     11   O  A00 X   1      10.705 119.862 196.3230  0.00  0.00     0.000 O
ATOM     12   O  A00 X   1       9.481 121.348 194.8870  0.00  0.00     0.000 OA
ATOM     13   O  A00 X   1      11.738 120.683 194.2680  0.00  0.00     0.000 OA
ATOM     14   O  A00 X   1      11.370 122.093 196.1480  0.00  0.00     0.000 OA
ATOM     15   S  A00 X   1      10.826 121.056 195.3140  0.00  0.00     0.000 S
ENDBRANCH 2 11
BRANCH 5 16
ATOM     16   C  A00 X   1      12.096 115.627 195.1090  0.00  0.00     0.000 C
ATOM     17   O  A00 X   1      13.198 115.314 195.5080  0.00  0.00     0.000 OA
ATOM     18   O  A00 X   1      11.944 115.863 193.9270  0.00  0.00     0.000 OA
ENDBRANCH 5 16
BRANCH 1 19
ATOM     19  O4  A00 X   2      13.151 117.920 197.1840  0.00  0.00     0.000 O
BRANCH 19 23
ATOM     20  C1  A00 X   2      13.246 118.386 201.4430  0.00  0.00     0.000 C
ATOM     21  C2  A00 X   2      13.311 119.671 200.5820  0.00  0.00     0.000 C
ATOM     22  C3  A00 X   2      12.839 119.390 199.1400  0.00  0.00     0.000 C
ATOM     23  C4  A00 X   2      13.633 118.216 198.5260  0.00  0.00     0.000 C
ATOM     24  C5  A00 X   2      13.504 117.002 199.4870  0.00  0.00     0.000 C
ATOM     25  O5  A00 X   2      14.048 117.372 200.7820  0.00  0.00     0.000 O
ATOM     26   O  A00 X   2      12.852 120.624 198.4020  0.00  0.00     0.000 O
ATOM     28  HD  A00 X   2      13.661 120.817 198.6420  0.00  0.00     0.000 HD
BRANCH 21 30
ATOM     28   N  A00 X   2      14.193 120.259 201.5950  0.00  0.00     0.000 N
ATOM     30  HD  A00 X   2      13.911 120.911 201.1000  0.00  0.00     0.000 HD
ATOM     30   O  A00 X   2      13.813 122.563 201.6410  0.00  0.00     0.000 OA
ATOM     31   S  A00 X   2      14.856 121.663 201.3000  0.00  0.00     0.000 S
ATOM     32   O  A00 X   2      15.989 121.692 202.1730  0.00  0.00     0.000 OA
ATOM     33   O  A00 X   2      15.283 121.651 199.9330  0.00  0.00     0.000 OA
ENDBRANCH 21 30
BRANCH 24 34
ATOM     34   C  A00 X   2      14.018 115.629 198.9950  0.00  0.00     0.000 C
ATOM     35   O  A00 X   2      16.755 113.796 200.5460  0.00  0.00     0.000 OA
ATOM     36   O  A00 X   2      15.307 115.319 199.5600  0.00  0.00     0.000 O
ATOM     37   O  A00 X   2      14.827 114.524 201.7060  0.00  0.00     0.000 OA
ATOM     38   S  A00 X   2      15.351 114.036 200.4680  0.00  0.00     0.000 S
ATOM     39   O  A00 X   2      14.601 113.028 199.7810  0.00  0.00     0.000 OA
ENDBRANCH 24 34
BRANCH 20 40
ATOM     40  O4  A00 X   3      11.868 117.986 201.4390  0.00  0.00     0.000 O
BRANCH 40 44
ATOM     41  C1  A00 X   3       9.458 115.298 201.1440  0.00  0.00     0.000 C
ATOM     42  C2  A00 X   3       9.096 116.787 201.3320  0.00  0.00     0.000 C
ATOM     43  C3  A00 X   3       9.870 117.399 202.5280  0.00  0.00     0.000 C
ATOM     44  C4  A00 X   3      11.373 117.148 202.5050  0.00  0.00     0.000 C
ATOM     45  C5  A00 X   3      11.655 115.630 202.3180  0.00  0.00     0.000 C
ATOM     46  O5  A00 X   3      10.897 115.093 201.1870  0.00  0.00     0.000 O
ATOM     47   O  A00 X   3       9.550 118.751 202.8510  0.00  0.00     0.000 O
ATOM     49  HD  A00 X   3      10.404 118.802 202.9870  0.00  0.00     0.000 HD
BRANCH 42 49
ATOM     49   O  A00 X   3       9.417 117.460 200.0950  0.00  0.00     0.000 O
ATOM     50   O  A00 X   3       9.354 119.710 199.2800  0.00  0.00     0.000 OA
ATOM     51   O  A00 X   3       7.556 118.923 200.5980  0.00  0.00     0.000 OA
ATOM     52   O  A00 X   3       7.850 118.015 198.4360  0.00  0.00     0.000 OA
ATOM     53   S  A00 X   3       8.501 118.598 199.5590  0.00  0.00     0.000 S
ENDBRANCH 42 49
BRANCH 45 54
ATOM     54   C  A00 X   3      11.435 114.848 203.6180  0.00  0.00     0.000 C
ATOM     55   O  A00 X   3      11.758 113.680 203.6990  0.00  0.00     0.000 OA
ATOM     56   O  A00 X   3      10.932 115.383 204.5930  0.00  0.00     0.000 OA
ENDBRANCH 45 54
BRANCH 41 57
ATOM     57  O4  A00 X   4       8.717 114.450 202.0500  0.00  0.00     0.000 O
BRANCH 57 61
ATOM     58  C1  A00 X   4       7.130 110.450 201.6980  0.00  0.00     0.000 C
ATOM     59  C2  A00 X   4       8.662 110.653 201.5820  0.00  0.00     0.000 C
ATOM     60  C3  A00 X   4       9.138 112.035 202.0750  0.00  0.00     0.000 C
ATOM     61  C4  A00 X   4       8.282 113.178 201.4900  0.00  0.00     0.000 C
ATOM     62  C5  A00 X   4       6.819 112.883 201.9050  0.00  0.00     0.000 C
ATOM     63  O5  A00 X   4       6.396 111.632 201.3050  0.00  0.00     0.000 O
BRANCH 59 66
ATOM     64   N  A00 X   4       9.091 110.574 200.1740  0.00  0.00     0.000 N
ATOM     66  HD  A00 X   4       8.516 110.801 199.5680  0.00  0.00     0.000 HD
ATOM     66   O  A00 X   4       9.060 108.177 200.4040  0.00  0.00     0.000 OA
ATOM     67   S  A00 X   4       9.716 109.198 199.6490  0.00  0.00     0.000 S
ATOM     68   O  A00 X   4       9.360 109.266 198.2620  0.00  0.00     0.000 OA
ATOM     69   O  A00 X   4      11.107 109.436 199.9120  0.00  0.00     0.000 OA
ENDBRANCH 59 66
BRANCH 62 70
ATOM     70   C  A00 X   4       5.812 113.987 201.5010  0.00  0.00     0.000 C
ATOM     71   O  A00 X   4       4.663 114.897 198.1900  0.00  0.00     0.000 OA
ATOM     72   O  A00 X   4       5.484 116.230 199.9500  0.00  0.00     0.000 OA
ATOM     73   O  A00 X   4       5.467 113.830 200.1150  0.00  0.00     0.000 O
ATOM     74   O  A00 X   4       7.035 114.894 198.6270  0.00  0.00     0.000 OA
ATOM     75   S  A00 X   4       5.717 115.045 199.1550  0.00  0.00     0.000 S
ENDBRANCH 62 70
ENDBRANCH 57 61
ENDBRANCH 41 57
ENDBRANCH 40 44
ENDBRANCH 20 40
ENDBRANCH 19 23
ENDBRANCH 1 19
TORSDOF 14
ENDMDL
MODEL 46
REMARK VINA RESULT:      -0.4    190.249    195.404
ROOT
ATOM      1  C1  A00 X   1      16.912 180.926  79.5800  0.00  0.00     0.000 C
ATOM      2  C2  A00 X   1      15.486 181.524  79.7190  0.00  0.00     0.000 C
ATOM      3  C3  A00 X   1      14.609 180.947  80.8780  0.00  0.00     0.000 C
ATOM      4  C4  A00 X   1      15.113 179.620  81.5020  0.00  0.00     0.000 C
ATOM      5  C5  A00 X   1      16.028 178.847  80.5520  0.00  0.00     0.000 C
ATOM      6  O5  A00 X   1      17.161 179.719  80.3430  0.00  0.00     0.000 O
ATOM      7   O  A00 X   1      13.300 180.685  80.3750  0.00  0.00     0.000 O
ATOM      9  HD  A00 X   1      13.513 180.022  80.8890  0.00  0.00     0.000 HD
ATOM      9   O  A00 X   1      15.786 179.848  82.7400  0.00  0.00     0.000 O
ATOM     11  HD  A00 X   1      15.999 179.185  83.2540  0.00  0.00     0.000 HD
ENDROOT
BRANCH 2 11
ATOM     11   O  A00 X   1      15.623 182.947  79.8970  0.00  0.00     0.000 O
ATOM     12   O  A00 X   1      13.744 184.347  80.4230  0.00  0.00     0.000 OA
ATOM     13   O  A00 X   1      13.797 183.178  78.2910  0.00  0.00     0.000 OA
ATOM     14   O  A00 X   1      15.323 184.948  78.7320  0.00  0.00     0.000 OA
ATOM     15   S  A00 X   1      14.526 183.895  79.3000  0.00  0.00     0.000 S
ENDBRANCH 2 11
BRANCH 5 16
ATOM     16   C  A00 X   1      15.366 178.380  79.2520  0.00  0.00     0.000 C
ATOM     17   O  A00 X   1      16.071 177.946  78.3640  0.00  0.00     0.000 OA
ATOM     18   O  A00 X   1      14.164 178.421  79.0810  0.00  0.00     0.000 OA
ENDBRANCH 5 16
BRANCH 1 19
ATOM     19  O4  A00 X   2      17.325 180.774  78.2000  0.00  0.00     0.000 O
BRANCH 19 23
ATOM     20  C1  A00 X   2      21.365 181.988  78.9550  0.00  0.00     0.000 C
ATOM     21  C2  A00 X   2      20.390 183.055  78.4010  0.00  0.00     0.000 C
ATOM     22  C3  A00 X   2      18.924 182.611  78.5910  0.00  0.00     0.000 C
ATOM     23  C4  A00 X   2      18.696 181.212  77.9760  0.00  0.00     0.000 C
ATOM     24  C5  A00 X   2      19.741 180.245  78.5960  0.00  0.00     0.000 C
ATOM     25  O5  A00 X   2      21.072 180.733  78.2850  0.00  0.00     0.000 O
ATOM     26   O  A00 X   2      18.060 183.662  78.1250  0.00  0.00     0.000 O
ATOM     28  HD  A00 X   2      18.474 183.735  77.3680  0.00  0.00     0.000 HD
BRANCH 21 30
ATOM     28   N  A00 X   2      21.510 183.636  77.6550  0.00  0.00     0.000 N
ATOM     30  HD  A00 X   2      20.878 184.229  77.6600  0.00  0.00     0.000 HD
ATOM     30   O  A00 X   2      21.156 185.940  77.4880  0.00  0.00     0.000 OA
ATOM     31   S  A00 X   2      21.215 184.807  76.6340  0.00  0.00     0.000 S
ATOM     32   O  A00 X   2      22.339 184.776  75.7490  0.00  0.00     0.000 OA
ATOM     33   O  A00 X   2      20.017 184.462  75.9290  0.00  0.00     0.000 OA
ENDBRANCH 21 30
BRANCH 24 34
ATOM     34   C  A00 X   2      19.581 178.731  78.3210  0.00  0.00     0.000 C
ATOM     35   O  A00 X   2      22.019 176.717  76.5160  0.00  0.00     0.000 OA
ATOM     36   O  A00 X   2      20.500 178.285  77.3030  0.00  0.00     0.000 O
ATOM     37   O  A00 X   2      22.529 178.006  78.4320  0.00  0.00     0.000 OA
ATOM     38   S  A00 X   2      21.545 177.206  77.7690  0.00  0.00     0.000 S
ATOM     39   O  A00 X   2      20.821 176.255  78.5580  0.00  0.00     0.000 OA
ENDBRANCH 24 34
BRANCH 20 40
ATOM     40  O4  A00 X   3      21.057 181.870  80.3520  0.00  0.00     0.000 O
BRANCH 40 44
ATOM     41  C1  A00 X   3      20.503 179.702  83.2010  0.00  0.00     0.000 C
ATOM     42  C2  A00 X   3      20.398 181.242  83.2330  0.00  0.00     0.000 C
ATOM     43  C3  A00 X   3      21.662 181.898  82.6220  0.00  0.00     0.000 C
ATOM     44  C4  A00 X   3      22.059 181.355  81.2550  0.00  0.00     0.000 C
ATOM     45  C5  A00 X   3      22.149 179.804  81.3040  0.00  0.00     0.000 C
ATOM     46  O5  A00 X   3      20.940 179.228  81.8970  0.00  0.00     0.000 O
ATOM     47   O  A00 X   3      21.714 183.322  82.6770  0.00  0.00     0.000 O
ATOM     49  HD  A00 X   3      22.057 183.228  81.8880  0.00  0.00     0.000 HD
BRANCH 42 49
ATOM     49   O  A00 X   3      19.208 181.600  82.4960  0.00  0.00     0.000 O
ATOM     50   O  A00 X   3      18.116 183.630  81.8500  0.00  0.00     0.000 OA
ATOM     51   O  A00 X   3      19.015 183.462  84.0300  0.00  0.00     0.000 OA
ATOM     52   O  A00 X   3      17.142 182.130  83.4790  0.00  0.00     0.000 OA
ATOM     53   S  A00 X   3      18.308 182.774  82.9790  0.00  0.00     0.000 S
ENDBRANCH 42 49
BRANCH 45 54
ATOM     54   C  A00 X   3      23.439 179.331  81.9860  0.00  0.00     0.000 C
ATOM     55   O  A00 X   3      24.182 180.127  82.5240  0.00  0.00     0.000 OA
ATOM     56   O  A00 X   3      23.743 178.149  81.9980  0.00  0.00     0.000 OA
ENDBRANCH 45 54
BRANCH 41 57
ATOM     57  O4  A00 X   4      21.290 179.197  84.3030  0.00  0.00     0.000 O
BRANCH 57 61
ATOM     58  C1  A00 X   4      21.061 175.596  86.6730  0.00  0.00     0.000 C
ATOM     59  C2  A00 X   4      21.322 175.467  85.1520  0.00  0.00     0.000 C
ATOM     60  C3  A00 X   4      21.738 176.794  84.4850  0.00  0.00     0.000 C
ATOM     61  C4  A00 X   4      20.807 177.956  84.8910  0.00  0.00     0.000 C
ATOM     62  C5  A00 X   4      20.861 178.038  86.4370  0.00  0.00     0.000 C
ATOM     63  O5  A00 X   4      20.340 176.807  86.9980  0.00  0.00     0.000 O
BRANCH 59 66
ATOM     64   N  A00 X   4      20.095 175.046  84.4520  0.00  0.00     0.000 N
ATOM     66  HD  A00 X   4      19.337 175.266  84.8070  0.00  0.00     0.000 HD
ATOM     66   O  A00 X   4      20.621 172.787  85.0990  0.00  0.00     0.000 OA
ATOM     67   S  A00 X   4      19.934 173.501  84.0690  0.00  0.00     0.000 S
ATOM     68   O  A00 X   4      18.505 173.380  84.0820  0.00  0.00     0.000 OA
ATOM     69   O  A00 X   4      20.512 173.504  82.7550  0.00  0.00     0.000 OA
ENDBRANCH 59 66
BRANCH 62 70
ATOM     70   C  A00 X   4      20.069 179.225  87.0350  0.00  0.00     0.000 C
ATOM     71   O  A00 X   4      16.484 179.712  87.1700  0.00  0.00     0.000 OA
ATOM     72   O  A00 X   4      18.203 181.159  86.4650  0.00  0.00     0.000 OA
ATOM     73   O  A00 X   4      18.674 178.885  87.0920  0.00  0.00     0.000 O
ATOM     74   O  A00 X   4      17.513 179.318  85.0250  0.00  0.00     0.000 OA
ATOM     75   S  A00 X   4      17.659 179.824  86.3520  0.00  0.00     0.000 S
ENDBRANCH 62 70
ENDBRANCH 57 61
ENDBRANCH 41 57
ENDBRANCH 40 44
ENDBRANCH 20 40
ENDBRANCH 19 23
ENDBRANCH 1 19
TORSDOF 14
ENDMDL
MODEL 47
REMARK VINA RESULT:      -0.4    127.072    131.315
ROOT
ATOM      1  C1  A00 X   1     108.443 107.477 167.9610  0.00  0.00     0.000 C
ATOM      2  C2  A00 X   1     107.563 108.190 169.0220  0.00  0.00     0.000 C
ATOM      3  C3  A00 X   1     106.062 108.405 168.6390  0.00  0.00     0.000 C
ATOM      4  C4  A00 X   1     105.723 108.222 167.1370  0.00  0.00     0.000 C
ATOM      5  C5  A00 X   1     106.949 108.404 166.2420  0.00  0.00     0.000 C
ATOM      6  O5  A00 X   1     107.855 107.352 166.6420  0.00  0.00     0.000 O
ATOM      7   O  A00 X   1     105.689 109.738 168.9780  0.00  0.00     0.000 O
ATOM      9  HD  A00 X   1     105.332 109.561 168.2090  0.00  0.00     0.000 HD
ATOM      9   O  A00 X   1     105.129 106.948 166.8870  0.00  0.00     0.000 O
ATOM     11  HD  A00 X   1     104.773 106.771 166.1180  0.00  0.00     0.000 HD
ENDROOT
BRANCH 2 11
ATOM     11   O  A00 X   1     107.631 107.420 170.2380  0.00  0.00     0.000 O
ATOM     12   O  A00 X   1     106.244 107.915 172.1350  0.00  0.00     0.000 OA
ATOM     13   O  A00 X   1     107.889 109.551 171.4030  0.00  0.00     0.000 OA
ATOM     14   O  A00 X   1     108.585 107.492 172.3680  0.00  0.00     0.000 OA
ATOM     15   S  A00 X   1     107.564 108.168 171.6140  0.00  0.00     0.000 S
ENDBRANCH 2 11
BRANCH 5 16
ATOM     16   C  A00 X   1     107.576 109.802 166.2800  0.00  0.00     0.000 C
ATOM     17   O  A00 X   1     108.666 109.963 165.7710  0.00  0.00     0.000 OA
ATOM     18   O  A00 X   1     107.020 110.752 166.7930  0.00  0.00     0.000 OA
ENDBRANCH 5 16
BRANCH 1 19
ATOM     19  O4  A00 X   2     109.786 108.016 167.8920  0.00  0.00     0.000 O
BRANCH 19 23
ATOM     20  C1  A00 X   2     111.627 104.177 167.3960  0.00  0.00     0.000 C
ATOM     21  C2  A00 X   2     111.612 104.784 168.8200  0.00  0.00     0.000 C
ATOM     22  C3  A00 X   2     110.568 105.916 168.9240  0.00  0.00     0.000 C
ATOM     23  C4  A00 X   2     110.802 106.975 167.8230  0.00  0.00     0.000 C
ATOM     24  C5  A00 X   2     110.813 106.241 166.4540  0.00  0.00     0.000 C
ATOM     25  O5  A00 X   2     111.881 105.258 166.4600  0.00  0.00     0.000 O
ATOM     26   O  A00 X   2     110.545 106.398 170.2790  0.00  0.00     0.000 O
ATOM     28  HD  A00 X   2     111.405 106.496 170.3120  0.00  0.00     0.000 HD
BRANCH 21 30
ATOM     28   N  A00 X   2     112.920 104.166 169.0570  0.00  0.00     0.000 N
ATOM     30  HD  A00 X   2     112.606 104.391 169.8310  0.00  0.00     0.000 HD
ATOM     30   O  A00 X   2     113.067 103.620 171.3230  0.00  0.00     0.000 OA
ATOM     31   S  A00 X   2     113.686 104.501 170.3980  0.00  0.00     0.000 S
ATOM     32   O  A00 X   2     115.050 104.197 170.0940  0.00  0.00     0.000 OA
ATOM     33   O  A00 X   2     113.531 105.905 170.6350  0.00  0.00     0.000 OA
ENDBRANCH 21 30
BRANCH 24 34
ATOM     34   C  A00 X   2     110.801 107.102 165.1690  0.00  0.00     0.000 C
ATOM     35   O  A00 X   2     113.321 109.605 164.3660  0.00  0.00     0.000 OA
ATOM     36   O  A00 X   2     111.695 108.227 165.2860  0.00  0.00     0.000 O
ATOM     37   O  A00 X   2     113.811 107.339 164.8350  0.00  0.00     0.000 OA
ATOM     38   S  A00 X   2     112.878 108.254 164.2510  0.00  0.00     0.000 S
ATOM     39   O  A00 X   2     112.314 107.906 162.9820  0.00  0.00     0.000 OA
ENDBRANCH 24 34
BRANCH 20 40
ATOM     40  O4  A00 X   3     110.306 103.658 167.1820  0.00  0.00     0.000 O
BRANCH 40 44
ATOM     41  C1  A00 X   3     107.494 103.358 164.9180  0.00  0.00     0.000 C
ATOM     42  C2  A00 X   3     107.528 102.802 166.3580  0.00  0.00     0.000 C
ATOM     43  C3  A00 X   3     108.802 101.951 166.5950  0.00  0.00     0.000 C
ATOM     44  C4  A00 X   3     110.103 102.632 166.1870  0.00  0.00     0.000 C
ATOM     45  C5  A00 X   3     109.993 103.159 164.7290  0.00  0.00     0.000 C
ATOM     46  O5  A00 X   3     108.772 103.947 164.5480  0.00  0.00     0.000 O
ATOM     47   O  A00 X   3     108.898 101.314 167.8670  0.00  0.00     0.000 O
ATOM     49  HD  A00 X   3     109.732 101.536 167.7900  0.00  0.00     0.000 HD
BRANCH 42 49
ATOM     49   O  A00 X   3     107.476 103.936 167.2510  0.00  0.00     0.000 O
ATOM     50   O  A00 X   3     107.545 104.281 169.6190  0.00  0.00     0.000 OA
ATOM     51   O  A00 X   3     106.271 102.482 168.7650  0.00  0.00     0.000 OA
ATOM     52   O  A00 X   3     105.535 104.687 168.3380  0.00  0.00     0.000 OA
ATOM     53   S  A00 X   3     106.664 103.856 168.5770  0.00  0.00     0.000 S
ENDBRANCH 42 49
BRANCH 45 54
ATOM     54   C  A00 X   3     110.139 102.028 163.7040  0.00  0.00     0.000 C
ATOM     55   O  A00 X   3     110.165 100.868 164.0620  0.00  0.00     0.000 OA
ATOM     56   O  A00 X   3     110.232 102.273 162.5110  0.00  0.00     0.000 OA
ENDBRANCH 45 54
BRANCH 41 57
ATOM     57  O4  A00 X   4     107.006 102.375 163.9770  0.00  0.00     0.000 O
BRANCH 57 61
ATOM     58  C1  A00 X   4     104.666 102.676 160.3620  0.00  0.00     0.000 C
ATOM     59  C2  A00 X   4     106.044 103.382 160.4140  0.00  0.00     0.000 C
ATOM     60  C3  A00 X   4     106.930 102.916 161.5870  0.00  0.00     0.000 C
ATOM     61  C4  A00 X   4     106.153 102.900 162.9210  0.00  0.00     0.000 C
ATOM     62  C5  A00 X   4     104.934 101.970 162.7050  0.00  0.00     0.000 C
ATOM     63  O5  A00 X   4     104.080 102.533 161.6760  0.00  0.00     0.000 O
BRANCH 59 66
ATOM     64   N  A00 X   4     105.854 104.831 160.6110  0.00  0.00     0.000 N
ATOM     66  HD  A00 X   4     105.138 105.088 161.0250  0.00  0.00     0.000 HD
ATOM     66   O  A00 X   4     105.473 105.001 158.2390  0.00  0.00     0.000 OA
ATOM     67   S  A00 X   4     105.952 105.788 159.3330  0.00  0.00     0.000 S
ATOM     68   O  A00 X   4     105.092 106.858 159.7450  0.00  0.00     0.000 OA
ATOM     69   O  A00 X   4     107.350 106.111 159.3640  0.00  0.00     0.000 OA
ENDBRANCH 59 66
BRANCH 62 70
ATOM     70   C  A00 X   4     104.083 101.737 163.9760  0.00  0.00     0.000 C
ATOM     71   O  A00 X   4     101.945 104.076 165.7270  0.00  0.00     0.000 OA
ATOM     72   O  A00 X   4     103.621 102.631 166.5310  0.00  0.00     0.000 OA
ATOM     73   O  A00 X   4     103.206 102.858 164.1730  0.00  0.00     0.000 O
ATOM     74   O  A00 X   4     104.252 104.674 165.3620  0.00  0.00     0.000 OA
ATOM     75   S  A00 X   4     103.296 103.629 165.5360  0.00  0.00     0.000 S
ENDBRANCH 62 70
ENDBRANCH 57 61
ENDBRANCH 41 57
ENDBRANCH 40 44
ENDBRANCH 20 40
ENDBRANCH 19 23
ENDBRANCH 1 19
TORSDOF 14
ENDMDL
MODEL 48
REMARK VINA RESULT:      -0.4    196.725    201.453
ROOT
ATOM      1  C1  A00 X   1      17.446 184.286  89.8750  0.00  0.00     0.000 C
ATOM      2  C2  A00 X   1      17.375 185.320  88.7190  0.00  0.00     0.000 C
ATOM      3  C3  A00 X   1      15.940 185.756  88.2750  0.00  0.00     0.000 C
ATOM      4  C4  A00 X   1      14.783 184.851  88.7710  0.00  0.00     0.000 C
ATOM      5  C5  A00 X   1      15.261 183.443  89.1240  0.00  0.00     0.000 C
ATOM      6  O5  A00 X   1      16.196 183.634  90.2100  0.00  0.00     0.000 O
ATOM      7   O  A00 X   1      15.880 185.746  86.8500  0.00  0.00     0.000 O
ATOM      9  HD  A00 X   1      15.136 185.409  87.1400  0.00  0.00     0.000 HD
ATOM      9   O  A00 X   1      14.113 185.428  89.8920  0.00  0.00     0.000 O
ATOM     11  HD  A00 X   1      13.369 185.092  90.1810  0.00  0.00     0.000 HD
ENDROOT
BRANCH 2 11
ATOM     11   O  A00 X   1      18.114 186.487  89.1290  0.00  0.00     0.000 O
ATOM     12   O  A00 X   1      18.118 188.508  87.8320  0.00  0.00     0.000 OA
ATOM     13   O  A00 X   1      19.081 186.484  86.8860  0.00  0.00     0.000 OA
ATOM     14   O  A00 X   1      20.136 187.579  88.7150  0.00  0.00     0.000 OA
ATOM     15   S  A00 X   1      18.892 187.311  88.0460  0.00  0.00     0.000 S
ENDBRANCH 2 11
BRANCH 5 16
ATOM     16   C  A00 X   1      15.839 182.642  87.9520  0.00  0.00     0.000 C
ATOM     17   O  A00 X   1      16.432 181.610  88.1900  0.00  0.00     0.000 OA
ATOM     18   O  A00 X   1      15.719 182.999  86.7970  0.00  0.00     0.000 OA
ENDBRANCH 5 16
BRANCH 1 19
ATOM     19  O4  A00 X   2      18.514 183.322  89.7010  0.00  0.00     0.000 O
BRANCH 19 23
ATOM     20  C1  A00 X   2      19.553 183.262  93.8580  0.00  0.00     0.000 C
ATOM     21  C2  A00 X   2      20.396 184.164  92.9240  0.00  0.00     0.000 C
ATOM     22  C3  A00 X   2      19.658 184.417  91.5920  0.00  0.00     0.000 C
ATOM     23  C4  A00 X   2      19.254 183.080  90.9310  0.00  0.00     0.000 C
ATOM     24  C5  A00 X   2      18.435 182.265  91.9700  0.00  0.00     0.000 C
ATOM     25  O5  A00 X   2      19.263 182.033  93.1390  0.00  0.00     0.000 O
ATOM     26   O  A00 X   2      20.447 185.313  90.7910  0.00  0.00     0.000 O
ATOM     28  HD  A00 X   2      21.169 184.845  90.8890  0.00  0.00     0.000 HD
BRANCH 21 30
ATOM     28   N  A00 X   2      21.569 183.858  93.7480  0.00  0.00     0.000 N
ATOM     30  HD  A00 X   2      21.774 184.549  93.2670  0.00  0.00     0.000 HD
ATOM     30   O  A00 X   2      22.982 185.718  93.7200  0.00  0.00     0.000 OA
ATOM     31   S  A00 X   2      22.986 184.371  93.2700  0.00  0.00     0.000 S
ATOM     32   O  A00 X   2      23.904 183.511  93.9490  0.00  0.00     0.000 OA
ATOM     33   O  A00 X   2      23.058 184.159  91.8550  0.00  0.00     0.000 OA
ENDBRANCH 21 30
BRANCH 24 34
ATOM     34   C  A00 X   2      17.716 180.985  91.4840  0.00  0.00     0.000 C
ATOM     35   O  A00 X   2      18.414 177.645  92.7550  0.00  0.00     0.000 OA
ATOM     36   O  A00 X   2      18.428 179.799  91.8910  0.00  0.00     0.000 O
ATOM     37   O  A00 X   2      17.794 179.476  94.1190  0.00  0.00     0.000 OA
ATOM     38   S  A00 X   2      17.635 178.836  92.8480  0.00  0.00     0.000 S
ATOM     39   O  A00 X   2      16.309 178.738  92.3160  0.00  0.00     0.000 OA
ENDBRANCH 24 34
BRANCH 20 40
ATOM     40  O4  A00 X   3      18.333 183.980  94.0930  0.00  0.00     0.000 O
BRANCH 40 44
ATOM     41  C1  A00 X   3      14.721 183.913  94.3560  0.00  0.00     0.000 C
ATOM     42  C2  A00 X   3      15.591 185.180  94.5070  0.00  0.00     0.000 C
ATOM     43  C3  A00 X   3      16.739 184.946  95.5230  0.00  0.00     0.000 C
ATOM     44  C4  A00 X   3      17.557 183.685  95.2750  0.00  0.00     0.000 C
ATOM     45  C5  A00 X   3      16.614 182.457  95.1390  0.00  0.00     0.000 C
ATOM     46  O5  A00 X   3      15.541 182.725  94.1790  0.00  0.00     0.000 O
ATOM     47   O  A00 X   3      17.558 186.078  95.8090  0.00  0.00     0.000 O
ATOM     49  HD  A00 X   3      18.187 185.483  95.8030  0.00  0.00     0.000 HD
BRANCH 42 49
ATOM     49   O  A00 X   3      16.104 185.500  93.1960  0.00  0.00     0.000 O
ATOM     50   O  A00 X   3      17.565 187.151  92.2620  0.00  0.00     0.000 OA
ATOM     51   O  A00 X   3      15.990 187.814  93.8960  0.00  0.00     0.000 OA
ATOM     52   O  A00 X   3      15.197 187.135  91.7750  0.00  0.00     0.000 OA
ATOM     53   S  A00 X   3      16.229 186.984  92.7420  0.00  0.00     0.000 S
ENDBRANCH 42 49
BRANCH 45 54
ATOM     54   C  A00 X   3      16.099 181.983  96.5030  0.00  0.00     0.000 C
ATOM     55   O  A00 X   3      16.237 182.675  97.4910  0.00  0.00     0.000 OA
ATOM     56   O  A00 X   3      15.543 180.902  96.6200  0.00  0.00     0.000 OA
ENDBRANCH 45 54
BRANCH 41 57
ATOM     57  O4  A00 X   4      13.749 183.803  95.4200  0.00  0.00     0.000 O
BRANCH 57 61
ATOM     58  C1  A00 X   4       9.741 182.207  95.5860  0.00  0.00     0.000 C
ATOM     59  C2  A00 X   4      10.905 181.250  95.2290  0.00  0.00     0.000 C
ATOM     60  C3  A00 X   4      12.298 181.831  95.5480  0.00  0.00     0.000 C
ATOM     61  C4  A00 X   4      12.453 183.273  95.0210  0.00  0.00     0.000 C
ATOM     62  C5  A00 X   4      11.314 184.099  95.6690  0.00  0.00     0.000 C
ATOM     63  O5  A00 X   4      10.035 183.576  95.2270  0.00  0.00     0.000 O
BRANCH 59 66
ATOM     64   N  A00 X   4      10.935 180.961  93.7840  0.00  0.00     0.000 N
ATOM     66  HD  A00 X   4      10.624 181.567  93.2480  0.00  0.00     0.000 HD
ATOM     66   O  A00 X   4       9.211 179.326  94.1780  0.00  0.00     0.000 OA
ATOM     67   S  A00 X   4      10.284 179.592  93.2720  0.00  0.00     0.000 S
ATOM     68   O  A00 X   4       9.893 179.972  91.9460  0.00  0.00     0.000 OA
ATOM     69   O  A00 X   4      11.433 178.732  93.3230  0.00  0.00     0.000 OA
ENDBRANCH 59 66
BRANCH 62 70
ATOM     70   C  A00 X   4      11.366 185.611  95.3450  0.00  0.00     0.000 C
ATOM     71   O  A00 X   4      10.749 187.269  92.1870  0.00  0.00     0.000 OA
ATOM     72   O  A00 X   4      12.527 187.492  93.7150  0.00  0.00     0.000 OA
ATOM     73   O  A00 X   4      10.812 185.836  94.0390  0.00  0.00     0.000 O
ATOM     74   O  A00 X   4      12.420 185.533  92.2690  0.00  0.00     0.000 OA
ATOM     75   S  A00 X   4      11.713 186.553  92.9740  0.00  0.00     0.000 S
ENDBRANCH 62 70
ENDBRANCH 57 61
ENDBRANCH 41 57
ENDBRANCH 40 44
ENDBRANCH 20 40
ENDBRANCH 19 23
ENDBRANCH 1 19
TORSDOF 14
ENDMDL
MODEL 49
REMARK VINA RESULT:      -0.4    131.116    135.811
ROOT
ATOM      1  C1  A00 X   1      26.905  82.571  75.3890  0.00  0.00     0.000 C
ATOM      2  C2  A00 X   1      25.406  82.816  75.0680  0.00  0.00     0.000 C
ATOM      3  C3  A00 X   1      24.550  81.541  74.7700  0.00  0.00     0.000 C
ATOM      4  C4  A00 X   1      25.355  80.250  74.4700  0.00  0.00     0.000 C
ATOM      5  C5  A00 X   1      26.774  80.554  73.9890  0.00  0.00     0.000 C
ATOM      6  O5  A00 X   1      27.398  81.240  75.0970  0.00  0.00     0.000 O
ATOM      7   O  A00 X   1      23.743  81.791  73.6210  0.00  0.00     0.000 O
ATOM      9  HD  A00 X   1      24.046  80.983  73.5500  0.00  0.00     0.000 HD
ATOM      9   O  A00 X   1      25.405  79.391  75.6080  0.00  0.00     0.000 O
ATOM     11  HD  A00 X   1      25.708  78.582  75.5370  0.00  0.00     0.000 HD
ENDROOT
BRANCH 2 11
ATOM     11   O  A00 X   1      24.828  83.519  76.1850  0.00  0.00     0.000 O
ATOM     12   O  A00 X   1      22.546  84.267  76.1700  0.00  0.00     0.000 OA
ATOM     13   O  A00 X   1      24.117  85.206  74.5680  0.00  0.00     0.000 OA
ATOM     14   O  A00 X   1      24.329  85.689  76.8870  0.00  0.00     0.000 OA
ATOM     15   S  A00 X   1      23.882  84.738  75.9060  0.00  0.00     0.000 S
ENDBRANCH 2 11
BRANCH 5 16
ATOM     16   C  A00 X   1      26.860  81.321  72.6660  0.00  0.00     0.000 C
ATOM     17   O  A00 X   1      27.934  81.769  72.3220  0.00  0.00     0.000 OA
ATOM     18   O  A00 X   1      25.895  81.491  71.9470  0.00  0.00     0.000 OA
ENDBRANCH 5 16
BRANCH 1 19
ATOM     19  O4  A00 X   2      27.772  83.590  74.8330  0.00  0.00     0.000 O
BRANCH 19 23
ATOM     20  C1  A00 X   2      30.437  83.589  78.1890  0.00  0.00     0.000 C
ATOM     21  C2  A00 X   2      29.348  84.688  78.1410  0.00  0.00     0.000 C
ATOM     22  C3  A00 X   2      28.230  84.311  77.1470  0.00  0.00     0.000 C
ATOM     23  C4  A00 X   2      28.823  83.994  75.7560  0.00  0.00     0.000 C
ATOM     24  C5  A00 X   2      29.908  82.898  75.9420  0.00  0.00     0.000 C
ATOM     25  O5  A00 X   2      30.933  83.402  76.8370  0.00  0.00     0.000 O
ATOM     26   O  A00 X   2      27.213  85.326  77.1900  0.00  0.00     0.000 O
ATOM     28  HD  A00 X   2      27.782  85.972  77.0930  0.00  0.00     0.000 HD
BRANCH 21 30
ATOM     28   N  A00 X   2      30.299  85.604  78.7780  0.00  0.00     0.000 N
ATOM     30  HD  A00 X   2      29.515  85.964  78.8550  0.00  0.00     0.000 HD
ATOM     30   O  A00 X   2      29.092  87.100  80.1050  0.00  0.00     0.000 OA
ATOM     31   S  A00 X   2      29.897  87.125  78.9360  0.00  0.00     0.000 S
ATOM     32   O  A00 X   2      31.153  87.794  79.0820  0.00  0.00     0.000 OA
ATOM     33   O  A00 X   2      29.260  87.524  77.7170  0.00  0.00     0.000 OA
ENDBRANCH 21 30
BRANCH 24 34
ATOM     34   C  A00 X   2      30.496  82.237  74.6730  0.00  0.00     0.000 C
ATOM     35   O  A00 X   2      34.007  82.407  73.7230  0.00  0.00     0.000 OA
ATOM     36   O  A00 X   2      31.806  82.758  74.3710  0.00  0.00     0.000 O
ATOM     37   O  A00 X   2      33.240  81.596  75.8080  0.00  0.00     0.000 OA
ATOM     38   S  A00 X   2      32.972  81.703  74.4070  0.00  0.00     0.000 S
ATOM     39   O  A00 X   2      32.484  80.537  73.7330  0.00  0.00     0.000 OA
ENDBRANCH 24 34
BRANCH 20 40
ATOM     40  O4  A00 X   3      29.766  82.397  78.6220  0.00  0.00     0.000 O
BRANCH 40 44
ATOM     41  C1  A00 X   3      29.279  78.829  78.2250  0.00  0.00     0.000 C
ATOM     42  C2  A00 X   3      28.524  79.712  79.2410  0.00  0.00     0.000 C
ATOM     43  C3  A00 X   3      29.512  80.568  80.0750  0.00  0.00     0.000 C
ATOM     44  C4  A00 X   3      30.530  81.344  79.2500  0.00  0.00     0.000 C
ATOM     45  C5  A00 X   3      31.250  80.389  78.2570  0.00  0.00     0.000 C
ATOM     46  O5  A00 X   3      30.281  79.594  77.4990  0.00  0.00     0.000 O
ATOM     47   O  A00 X   3      28.930  81.361  81.1080  0.00  0.00     0.000 O
ATOM     49  HD  A00 X   3      29.521  81.937  80.8430  0.00  0.00     0.000 HD
BRANCH 42 49
ATOM     49   O  A00 X   3      27.614  80.542  78.4860  0.00  0.00     0.000 O
ATOM     50   O  A00 X   3      26.047  82.285  78.9750  0.00  0.00     0.000 OA
ATOM     51   O  A00 X   3      26.154  80.410  80.4120  0.00  0.00     0.000 OA
ATOM     52   O  A00 X   3      25.322  80.105  78.2200  0.00  0.00     0.000 OA
ATOM     53   S  A00 X   3      26.197  80.865  79.0440  0.00  0.00     0.000 S
ENDBRANCH 42 49
BRANCH 45 54
ATOM     54   C  A00 X   3      32.312  79.535  78.9610  0.00  0.00     0.000 C
ATOM     55   O  A00 X   3      33.078  78.847  78.3180  0.00  0.00     0.000 OA
ATOM     56   O  A00 X   3      32.404  79.530  80.1790  0.00  0.00     0.000 OA
ENDBRANCH 45 54
BRANCH 41 57
ATOM     57  O4  A00 X   4      29.792  77.626  78.8400  0.00  0.00     0.000 O
BRANCH 57 61
ATOM     58  C1  A00 X   4      30.355  73.596  77.3970  0.00  0.00     0.000 C
ATOM     59  C2  A00 X   4      31.129  74.746  76.7060  0.00  0.00     0.000 C
ATOM     60  C3  A00 X   4      31.134  76.058  77.5160  0.00  0.00     0.000 C
ATOM     61  C4  A00 X   4      29.720  76.430  78.0140  0.00  0.00     0.000 C
ATOM     62  C5  A00 X   4      29.224  75.227  78.8540  0.00  0.00     0.000 C
ATOM     63  O5  A00 X   4      29.124  74.058  78.0010  0.00  0.00     0.000 O
BRANCH 59 66
ATOM     64   N  A00 X   4      30.503  75.087  75.4150  0.00  0.00     0.000 N
ATOM     66  HD  A00 X   4      29.654  74.942  75.3330  0.00  0.00     0.000 HD
ATOM     66   O  A00 X   4      31.696  73.226  74.4600  0.00  0.00     0.000 OA
ATOM     67   S  A00 X   4      31.150  74.491  74.0790  0.00  0.00     0.000 S
ATOM     68   O  A00 X   4      29.993  74.435  73.2350  0.00  0.00     0.000 OA
ATOM     69   O  A00 X   4      32.068  75.545  73.7510  0.00  0.00     0.000 OA
ENDBRANCH 59 66
BRANCH 62 70
ATOM     70   C  A00 X   4      27.854  75.455  79.5370  0.00  0.00     0.000 C
ATOM     71   O  A00 X   4      24.580  75.701  78.0110  0.00  0.00     0.000 OA
ATOM     72   O  A00 X   4      25.646  77.087  79.5880  0.00  0.00     0.000 OA
ATOM     73   O  A00 X   4      26.805  75.236  78.5800  0.00  0.00     0.000 O
ATOM     74   O  A00 X   4      26.321  77.185  77.2490  0.00  0.00     0.000 OA
ATOM     75   S  A00 X   4      25.792  76.405  78.3210  0.00  0.00     0.000 S
ENDBRANCH 62 70
ENDBRANCH 57 61
ENDBRANCH 41 57
ENDBRANCH 40 44
ENDBRANCH 20 40
ENDBRANCH 19 23
ENDBRANCH 1 19
TORSDOF 14
ENDMDL
MODEL 50
REMARK VINA RESULT:      -0.4    116.625    122.238
ROOT
ATOM      1  C1  A00 X   1      59.073 111.133  64.5910  0.00  0.00     0.000 C
ATOM      2  C2  A00 X   1      60.412 110.398  64.8660  0.00  0.00     0.000 C
ATOM      3  C3  A00 X   1      61.662 111.310  65.0940  0.00  0.00     0.000 C
ATOM      4  C4  A00 X   1      61.498 112.790  64.6600  0.00  0.00     0.000 C
ATOM      5  C5  A00 X   1      60.392 112.967  63.6200  0.00  0.00     0.000 C
ATOM      6  O5  A00 X   1      59.185 112.547  64.2930  0.00  0.00     0.000 O
ATOM      7   O  A00 X   1      62.754 110.786  64.3410  0.00  0.00     0.000 O
ATOM      9  HD  A00 X   1      62.774 111.648  64.2550  0.00  0.00     0.000 HD
ATOM      9   O  A00 X   1      61.247 113.637  65.7810  0.00  0.00     0.000 O
ATOM     11  HD  A00 X   1      61.268 114.499  65.6950  0.00  0.00     0.000 HD
ENDROOT
BRANCH 2 11
ATOM     11   O  A00 X   1      60.223 109.562  66.0240  0.00  0.00     0.000 O
ATOM     12   O  A00 X   1      61.950 108.102  66.8310  0.00  0.00     0.000 OA
ATOM     13   O  A00 X   1      60.989 107.708  64.6320  0.00  0.00     0.000 OA
ATOM     14   O  A00 X   1      59.690 107.362  66.5930  0.00  0.00     0.000 OA
ATOM     15   S  A00 X   1      60.774 108.095  65.9980  0.00  0.00     0.000 S
ENDBRANCH 2 11
BRANCH 5 16
ATOM     16   C  A00 X   1      60.634 112.249  62.2880  0.00  0.00     0.000 C
ATOM     17   O  A00 X   1      59.720 112.178  61.4920  0.00  0.00     0.000 OA
ATOM     18   O  A00 X   1      61.706 111.755  61.9990  0.00  0.00     0.000 OA
ENDBRANCH 5 16
BRANCH 1 19
ATOM     19  O4  A00 X   2      58.249 110.451  63.6130  0.00  0.00     0.000 O
BRANCH 19 23
ATOM     20  C1  A00 X   2      54.573 111.397  65.6040  0.00  0.00     0.000 C
ATOM     21  C2  A00 X   2      55.180 109.995  65.8520  0.00  0.00     0.000 C
ATOM     22  C3  A00 X   2      56.667 109.959  65.4410  0.00  0.00     0.000 C
ATOM     23  C4  A00 X   2      56.840 110.438  63.9820  0.00  0.00     0.000 C
ATOM     24  C5  A00 X   2      56.178 111.838  63.8610  0.00  0.00     0.000 C
ATOM     25  O5  A00 X   2      54.772 111.721  64.2020  0.00  0.00     0.000 O
ATOM     26   O  A00 X   2      57.200 108.661  65.7540  0.00  0.00     0.000 O
ATOM     28  HD  A00 X   2      56.554 108.244  65.3560  0.00  0.00     0.000 HD
BRANCH 21 30
ATOM     28   N  A00 X   2      53.819 109.455  65.9250  0.00  0.00     0.000 N
ATOM     30  HD  A00 X   2      54.344 108.857  66.2670  0.00  0.00     0.000 HD
ATOM     30   O  A00 X   2      53.826 107.665  67.4270  0.00  0.00     0.000 OA
ATOM     31   S  A00 X   2      53.629 107.890  66.0390  0.00  0.00     0.000 S
ATOM     32   O  A00 X   2      52.292 107.676  65.5770  0.00  0.00     0.000 OA
ATOM     33   O  A00 X   2      54.568 107.283  65.1430  0.00  0.00     0.000 OA
ENDBRANCH 21 30
BRANCH 24 34
ATOM     34   C  A00 X   2      56.412 112.641  62.5600  0.00  0.00     0.000 C
ATOM     35   O  A00 X   2      55.479 111.468  59.2420  0.00  0.00     0.000 OA
ATOM     36   O  A00 X   2      56.276 111.802  61.3960  0.00  0.00     0.000 O
ATOM     37   O  A00 X   2      53.968 111.653  61.0520  0.00  0.00     0.000 OA
ATOM     38   S  A00 X   2      55.121 112.205  60.4090  0.00  0.00     0.000 S
ATOM     39   O  A00 X   2      55.185 113.629  60.2710  0.00  0.00     0.000 OA
ENDBRANCH 24 34
BRANCH 20 40
ATOM     40  O4  A00 X   3      55.337 112.299  66.4180  0.00  0.00     0.000 O
BRANCH 40 44
ATOM     41  C1  A00 X   3      57.036 115.488  66.6780  0.00  0.00     0.000 C
ATOM     42  C2  A00 X   3      56.984 114.425  67.7960  0.00  0.00     0.000 C
ATOM     43  C3  A00 X   3      55.526 113.968  68.0600  0.00  0.00     0.000 C
ATOM     44  C4  A00 X   3      54.754 113.560  66.8120  0.00  0.00     0.000 C
ATOM     45  C5  A00 X   3      54.849 114.680  65.7380  0.00  0.00     0.000 C
ATOM     46  O5  A00 X   3      56.241 115.087  65.5280  0.00  0.00     0.000 O
ATOM     47   O  A00 X   3      55.346 113.049  69.1360  0.00  0.00     0.000 O
ATOM     49  HD  A00 X   3      54.771 112.699  68.5910  0.00  0.00     0.000 HD
BRANCH 42 49
ATOM     49   O  A00 X   3      57.814 113.322  67.3710  0.00  0.00     0.000 O
ATOM     50   O  A00 X   3      58.397 111.163  68.2240  0.00  0.00     0.000 OA
ATOM     51   O  A00 X   3      58.296 112.991  69.7190  0.00  0.00     0.000 OA
ATOM     52   O  A00 X   3      60.016 112.954  68.0980  0.00  0.00     0.000 OA
ATOM     53   S  A00 X   3      58.687 112.551  68.4030  0.00  0.00     0.000 S
ENDBRANCH 42 49
BRANCH 45 54
ATOM     54   C  A00 X   3      53.919 115.856  66.0590  0.00  0.00     0.000 C
ATOM     55   O  A00 X   3      53.754 116.752  65.2570  0.00  0.00     0.000 OA
ATOM     56   O  A00 X   3      53.329 115.912  67.1270  0.00  0.00     0.000 OA
ENDBRANCH 45 54
BRANCH 41 57
ATOM     57  O4  A00 X   4      56.721 116.806  67.1790  0.00  0.00     0.000 O
BRANCH 57 61
ATOM     58  C1  A00 X   4      58.091 120.760  66.1150  0.00  0.00     0.000 C
ATOM     59  C2  A00 X   4      57.357 119.916  65.0430  0.00  0.00     0.000 C
ATOM     60  C3  A00 X   4      56.609 118.699  65.6250  0.00  0.00     0.000 C
ATOM     61  C4  A00 X   4      57.497 117.891  66.5960  0.00  0.00     0.000 C
ATOM     62  C5  A00 X   4      57.947 118.881  67.6990  0.00  0.00     0.000 C
ATOM     63  O5  A00 X   4      58.749 119.931  67.1000  0.00  0.00     0.000 O
BRANCH 59 66
ATOM     64   N  A00 X   4      58.329 119.360  64.0840  0.00  0.00     0.000 N
ATOM     66  HD  A00 X   4      59.135 119.219  64.3680  0.00  0.00     0.000 HD
ATOM     66   O  A00 X   4      58.275 121.485  62.9520  0.00  0.00     0.000 OA
ATOM     67   S  A00 X   4      58.516 120.103  62.6800  0.00  0.00     0.000 S
ATOM     68   O  A00 X   4      59.877 119.760  62.3860  0.00  0.00     0.000 OA
ATOM     69   O  A00 X   4      57.548 119.397  61.8890  0.00  0.00     0.000 OA
ENDBRANCH 59 66
BRANCH 62 70
ATOM     70   C  A00 X   4      58.765 118.228  68.8390  0.00  0.00     0.000 C
ATOM     71   O  A00 X   4      62.119 116.869  68.7240  0.00  0.00     0.000 OA
ATOM     72   O  A00 X   4      60.122 115.956  69.5750  0.00  0.00     0.000 OA
ATOM     73   O  A00 X   4      60.126 118.061  68.4110  0.00  0.00     0.000 O
ATOM     74   O  A00 X   4      60.482 116.030  67.1660  0.00  0.00     0.000 OA
ATOM     75   S  A00 X   4      60.734 116.616  68.4430  0.00  0.00     0.000 S
ENDBRANCH 62 70
ENDBRANCH 57 61
ENDBRANCH 41 57
ENDBRANCH 40 44
ENDBRANCH 20 40
ENDBRANCH 19 23
ENDBRANCH 1 19
TORSDOF 14
ENDMDL
MODEL 51
REMARK VINA RESULT:      -0.4    114.446    119.098
ROOT
ATOM      1  C1  A00 X   1      99.136 121.690 130.8640  0.00  0.00     0.000 C
ATOM      2  C2  A00 X   1      99.288 123.108 131.4780  0.00  0.00     0.000 C
ATOM      3  C3  A00 X   1      98.356 124.216 130.8880  0.00  0.00     0.000 C
ATOM      4  C4  A00 X   1      97.672 123.867 129.5410  0.00  0.00     0.000 C
ATOM      5  C5  A00 X   1      98.424 122.778 128.7770  0.00  0.00     0.000 C
ATOM      6  O5  A00 X   1      98.368 121.619 129.6380  0.00  0.00     0.000 O
ATOM      7   O  A00 X   1      99.131 125.390 130.6560  0.00  0.00     0.000 O
ATOM      9  HD  A00 X   1      98.599 125.297 129.9780  0.00  0.00     0.000 HD
ATOM      9   O  A00 X   1      96.314 123.471 129.7330  0.00  0.00     0.000 O
ATOM     11  HD  A00 X   1      95.782 123.377 129.0550  0.00  0.00     0.000 HD
ENDROOT
BRANCH 2 11
ATOM     11   O  A00 X   1      99.051 123.000 132.8950  0.00  0.00     0.000 O
ATOM     12   O  A00 X   1      98.896 124.936 134.3080  0.00  0.00     0.000 OA
ATOM     13   O  A00 X   1     100.997 124.446 133.1850  0.00  0.00     0.000 OA
ATOM     14   O  A00 X   1     100.203 123.032 134.9250  0.00  0.00     0.000 OA
ATOM     15   S  A00 X   1      99.840 123.939 133.8700  0.00  0.00     0.000 S
ENDBRANCH 2 11
BRANCH 5 16
ATOM     16   C  A00 X   1      99.846 123.153 128.3470  0.00  0.00     0.000 C
ATOM     17   O  A00 X   1     100.576 122.279 127.9270  0.00  0.00     0.000 OA
ATOM     18   O  A00 X   1     100.266 124.292 128.4050  0.00  0.00     0.000 OA
ENDBRANCH 5 16
BRANCH 1 19
ATOM     19  O4  A00 X   2     100.401 120.995 130.7370  0.00  0.00     0.000 O
BRANCH 19 23
ATOM     20  C1  A00 X   2      98.780 117.198 131.8850  0.00  0.00     0.000 C
ATOM     21  C2  A00 X   2      99.500 118.027 132.9760  0.00  0.00     0.000 C
ATOM     22  C3  A00 X   2      99.634 119.503 132.5450  0.00  0.00     0.000 C
ATOM     23  C4  A00 X   2     100.320 119.605 131.1640  0.00  0.00     0.000 C
ATOM     24  C5  A00 X   2      99.519 118.721 130.1700  0.00  0.00     0.000 C
ATOM     25  O5  A00 X   2      99.529 117.351 130.6500  0.00  0.00     0.000 O
ATOM     26   O  A00 X   2     100.245 120.242 133.6170  0.00  0.00     0.000 O
ATOM     28  HD  A00 X   2     100.895 119.677 133.7030  0.00  0.00     0.000 HD
BRANCH 21 30
ATOM     28   N  A00 X   2      99.975 116.770 133.5630  0.00  0.00     0.000 N
ATOM     30  HD  A00 X   2     100.090 117.385 134.1610  0.00  0.00     0.000 HD
ATOM     30   O  A00 X   2     100.156 117.068 135.8730  0.00  0.00     0.000 OA
ATOM     31   S  A00 X   2     101.006 116.834 134.7600  0.00  0.00     0.000 S
ATOM     32   O  A00 X   2     101.631 115.548 134.7370  0.00  0.00     0.000 OA
ATOM     33   O  A00 X   2     101.959 117.856 134.4440  0.00  0.00     0.000 OA
ENDBRANCH 21 30
BRANCH 24 34
ATOM     34   C  A00 X   2      99.860 118.828 128.6650  0.00  0.00     0.000 C
ATOM     35   O  A00 X   2     101.172 116.081 126.6690  0.00  0.00     0.000 OA
ATOM     36   O  A00 X   2     100.677 117.721 128.2340  0.00  0.00     0.000 O
ATOM     37   O  A00 X   2      99.159 115.972 127.9060  0.00  0.00     0.000 OA
ATOM     38   S  A00 X   2     100.033 116.802 127.1330  0.00  0.00     0.000 S
ATOM     39   O  A00 X   2      99.436 117.679 126.1710  0.00  0.00     0.000 OA
ENDBRANCH 24 34
BRANCH 20 40
ATOM     40  O4  A00 X   3      97.483 117.794 131.7370  0.00  0.00     0.000 O
BRANCH 40 44
ATOM     41  C1  A00 X   3      94.875 118.952 129.5060  0.00  0.00     0.000 C
ATOM     42  C2  A00 X   3      94.824 119.052 131.0460  0.00  0.00     0.000 C
ATOM     43  C3  A00 X   3      95.137 117.682 131.7020  0.00  0.00     0.000 C
ATOM     44  C4  A00 X   3      96.403 117.009 131.1880  0.00  0.00     0.000 C
ATOM     45  C5  A00 X   3      96.378 116.941 129.6350  0.00  0.00     0.000 C
ATOM     46  O5  A00 X   3      96.069 118.252 129.0600  0.00  0.00     0.000 O
ATOM     47   O  A00 X   3      95.034 117.634 133.1230  0.00  0.00     0.000 O
ATOM     49  HD  A00 X   3      95.735 117.132 133.0450  0.00  0.00     0.000 HD
BRANCH 42 49
ATOM     49   O  A00 X   3      95.786 120.056 131.4360  0.00  0.00     0.000 O
ATOM     50   O  A00 X   3      96.594 120.973 133.4950  0.00  0.00     0.000 OA
ATOM     51   O  A00 X   3      94.278 120.555 133.2630  0.00  0.00     0.000 OA
ATOM     52   O  A00 X   3      95.247 122.279 131.9680  0.00  0.00     0.000 OA
ATOM     53   S  A00 X   3      95.473 121.030 132.6100  0.00  0.00     0.000 S
ENDBRANCH 42 49
BRANCH 45 54
ATOM     54   C  A00 X   3      95.453 115.827 129.1310  0.00  0.00     0.000 C
ATOM     55   O  A00 X   3      95.436 115.521 127.9560  0.00  0.00     0.000 OA
ATOM     56   O  A00 X   3      94.715 115.231 129.9000  0.00  0.00     0.000 OA
ENDBRANCH 45 54
BRANCH 41 57
ATOM     57  O4  A00 X   4      93.645 118.418 128.9650  0.00  0.00     0.000 O
BRANCH 57 61
ATOM     58  C1  A00 X   4      91.486 119.149 125.2980  0.00  0.00     0.000 C
ATOM     59  C2  A00 X   4      92.920 118.569 125.2110  0.00  0.00     0.000 C
ATOM     60  C3  A00 X   4      93.443 118.020 126.5540  0.00  0.00     0.000 C
ATOM     61  C4  A00 X   4      93.211 119.016 127.7100  0.00  0.00     0.000 C
ATOM     62  C5  A00 X   4      91.688 119.294 127.7470  0.00  0.00     0.000 C
ATOM     63  O5  A00 X   4      91.287 119.923 126.5030  0.00  0.00     0.000 O
BRANCH 59 66
ATOM     64   N  A00 X   4      94.023 119.453 124.7920  0.00  0.00     0.000 N
ATOM     66  HD  A00 X   4      93.979 120.285 125.0260  0.00  0.00     0.000 HD
ATOM     66   O  A00 X   4      93.201 119.244 122.5380  0.00  0.00     0.000 OA
ATOM     67   S  A00 X   4      94.421 119.485 123.2430  0.00  0.00     0.000 S
ATOM     68   O  A00 X   4      94.942 120.816 123.1380  0.00  0.00     0.000 OA
ATOM     69   O  A00 X   4      95.423 118.457 123.2180  0.00  0.00     0.000 OA
ENDBRANCH 59 66
BRANCH 62 70
ATOM     70   C  A00 X   4      91.238 120.195 128.9220  0.00  0.00     0.000 C
ATOM     71   O  A00 X   4      91.868 123.723 129.4350  0.00  0.00     0.000 OA
ATOM     72   O  A00 X   4      92.136 121.890 130.8880  0.00  0.00     0.000 OA
ATOM     73   O  A00 X   4      91.496 121.569 128.5910  0.00  0.00     0.000 O
ATOM     74   O  A00 X   4      93.750 122.253 129.0990  0.00  0.00     0.000 OA
ATOM     75   S  A00 X   4      92.407 122.398 129.5610  0.00  0.00     0.000 S
ENDBRANCH 62 70
ENDBRANCH 57 61
ENDBRANCH 41 57
ENDBRANCH 40 44
ENDBRANCH 20 40
ENDBRANCH 19 23
ENDBRANCH 1 19
TORSDOF 14
ENDMDL
MODEL 52
REMARK VINA RESULT:      -0.4    114.359    119.378
ROOT
ATOM      1  C1  A00 X   1      65.161 115.974  61.6700  0.00  0.00     0.000 C
ATOM      2  C2  A00 X   1      66.623 116.269  62.0980  0.00  0.00     0.000 C
ATOM      3  C3  A00 X   1      66.806 117.310  63.2510  0.00  0.00     0.000 C
ATOM      4  C4  A00 X   1      65.562 118.180  63.5700  0.00  0.00     0.000 C
ATOM      5  C5  A00 X   1      64.594 118.257  62.3890  0.00  0.00     0.000 C
ATOM      6  O5  A00 X   1      64.163 116.894  62.1790  0.00  0.00     0.000 O
ATOM      7   O  A00 X   1      67.850 118.212  62.8930  0.00  0.00     0.000 O
ATOM      9  HD  A00 X   1      67.219 118.682  63.2550  0.00  0.00     0.000 HD
ATOM      9   O  A00 X   1      64.875 117.704  64.7270  0.00  0.00     0.000 O
ATOM     11  HD  A00 X   1      64.244 118.174  65.0890  0.00  0.00     0.000 HD
ENDROOT
BRANCH 2 11
ATOM     11   O  A00 X   1      67.225 115.021  62.4920  0.00  0.00     0.000 O
ATOM     12   O  A00 X   1      69.407 114.921  63.4890  0.00  0.00     0.000 OA
ATOM     13   O  A00 X   1      69.178 115.720  61.2030  0.00  0.00     0.000 OA
ATOM     14   O  A00 X   1      68.762 113.438  61.7290  0.00  0.00     0.000 OA
ATOM     15   S  A00 X   1      68.750 114.792  62.2130  0.00  0.00     0.000 S
ENDBRANCH 2 11
BRANCH 5 16
ATOM     16   C  A00 X   1      65.160 118.922  61.1300  0.00  0.00     0.000 C
ATOM     17   O  A00 X   1      64.535 118.831  60.0940  0.00  0.00     0.000 OA
ATOM     18   O  A00 X   1      66.205 119.542  61.1340  0.00  0.00     0.000 OA
ENDBRANCH 5 16
BRANCH 1 19
ATOM     19  O4  A00 X   2      65.022 115.781  60.2410  0.00  0.00     0.000 O
BRANCH 19 23
ATOM     20  C1  A00 X   2      62.184 112.595  60.6390  0.00  0.00     0.000 C
ATOM     21  C2  A00 X   2      63.664 112.208  60.4010  0.00  0.00     0.000 C
ATOM     22  C3  A00 X   2      64.599 113.396  60.7100  0.00  0.00     0.000 C
ATOM     23  C4  A00 X   2      64.169 114.648  59.9110  0.00  0.00     0.000 C
ATOM     24  C5  A00 X   2      62.671 114.917  60.2200  0.00  0.00     0.000 C
ATOM     25  O5  A00 X   2      61.895 113.758  59.8190  0.00  0.00     0.000 O
ATOM     26   O  A00 X   2      65.961 112.968  60.5400  0.00  0.00     0.000 O
ATOM     28  HD  A00 X   2      65.810 112.631  59.7570  0.00  0.00     0.000 HD
BRANCH 21 30
ATOM     28   N  A00 X   2      63.199 111.060  59.6170  0.00  0.00     0.000 N
ATOM     30  HD  A00 X   2      64.032 110.915  59.8030  0.00  0.00     0.000 HD
ATOM     30   O  A00 X   2      64.744 109.327  59.8770  0.00  0.00     0.000 OA
ATOM     31   S  A00 X   2      64.266 110.183  58.8490  0.00  0.00     0.000 S
ATOM     32   O  A00 X   2      63.502 109.534  57.8300  0.00  0.00     0.000 OA
ATOM     33   O  A00 X   2      65.213 111.085  58.2640  0.00  0.00     0.000 OA
ENDBRANCH 21 30
BRANCH 24 34
ATOM     34   C  A00 X   2      62.056 116.248  59.7250  0.00  0.00     0.000 C
ATOM     35   O  A00 X   2      62.012 117.305  56.2410  0.00  0.00     0.000 OA
ATOM     36   O  A00 X   2      62.491 116.559  58.3860  0.00  0.00     0.000 O
ATOM     37   O  A00 X   2      61.120 115.254  57.0120  0.00  0.00     0.000 OA
ATOM     38   S  A00 X   2      61.347 116.635  57.3100  0.00  0.00     0.000 S
ATOM     39   O  A00 X   2      60.274 117.368  57.9120  0.00  0.00     0.000 OA
ENDBRANCH 24 34
BRANCH 20 40
ATOM     40  O4  A00 X   3      62.095 112.952  62.0260  0.00  0.00     0.000 O
BRANCH 40 44
ATOM     41  C1  A00 X   3      60.832 115.273  64.5050  0.00  0.00     0.000 C
ATOM     42  C2  A00 X   3      61.724 114.051  64.8170  0.00  0.00     0.000 C
ATOM     43  C3  A00 X   3      61.149 112.765  64.1690  0.00  0.00     0.000 C
ATOM     44  C4  A00 X   3      60.813 112.897  62.6890  0.00  0.00     0.000 C
ATOM     45  C5  A00 X   3      59.912 114.142  62.4570  0.00  0.00     0.000 C
ATOM     46  O5  A00 X   3      60.486 115.330  63.0930  0.00  0.00     0.000 O
ATOM     47   O  A00 X   3      61.845 111.555  64.4630  0.00  0.00     0.000 O
ATOM     49  HD  A00 X   3      61.673 111.386  63.6310  0.00  0.00     0.000 HD
BRANCH 42 49
ATOM     49   O  A00 X   3      63.044 114.352  64.3130  0.00  0.00     0.000 O
ATOM     50   O  A00 X   3      65.146 113.215  64.1780  0.00  0.00     0.000 OA
ATOM     51   O  A00 X   3      63.872 113.025  66.1600  0.00  0.00     0.000 OA
ATOM     52   O  A00 X   3      64.828 115.121  65.6320  0.00  0.00     0.000 OA
ATOM     53   S  A00 X   3      64.307 113.907  65.1060  0.00  0.00     0.000 S
ENDBRANCH 42 49
BRANCH 45 54
ATOM     54   C  A00 X   3      58.460 113.878  62.8730  0.00  0.00     0.000 C
ATOM     55   O  A00 X   3      57.583 114.672  62.6000  0.00  0.00     0.000 OA
ATOM     56   O  A00 X   3      58.160 112.866  63.4880  0.00  0.00     0.000 OA
ENDBRANCH 45 54
BRANCH 41 57
ATOM     57  O4  A00 X   4      59.693 115.342  65.3920  0.00  0.00     0.000 O
BRANCH 57 61
ATOM     58  C1  A00 X   4      57.481 118.643  67.0800  0.00  0.00     0.000 C
ATOM     59  C2  A00 X   4      57.516 118.485  65.5390  0.00  0.00     0.000 C
ATOM     60  C3  A00 X   4      58.016 117.102  65.0740  0.00  0.00     0.000 C
ATOM     61  C4  A00 X   4      59.311 116.685  65.8030  0.00  0.00     0.000 C
ATOM     62  C5  A00 X   4      58.986 116.710  67.3180  0.00  0.00     0.000 C
ATOM     63  O5  A00 X   4      58.646 118.064  67.7110  0.00  0.00     0.000 O
BRANCH 59 66
ATOM     64   N  A00 X   4      58.356 119.392  64.7360  0.00  0.00     0.000 N
ATOM     66  HD  A00 X   4      59.102 119.660  65.0850  0.00  0.00     0.000 HD
ATOM     66   O  A00 X   4      56.688 121.092  65.0950  0.00  0.00     0.000 OA
ATOM     67   S  A00 X   4      57.685 120.718  64.1420  0.00  0.00     0.000 S
ATOM     68   O  A00 X   4      58.829 121.579  64.0760  0.00  0.00     0.000 OA
ATOM     69   O  A00 X   4      57.243 120.228  62.8670  0.00  0.00     0.000 OA
ENDBRANCH 59 66
BRANCH 62 70
ATOM     70   C  A00 X   4      60.140 116.211  68.2200  0.00  0.00     0.000 C
ATOM     71   O  A00 X   4      63.326 117.792  68.8980  0.00  0.00     0.000 OA
ATOM     72   O  A00 X   4      62.814 115.584  68.2580  0.00  0.00     0.000 OA
ATOM     73   O  A00 X   4      61.100 117.267  68.3910  0.00  0.00     0.000 O
ATOM     74   O  A00 X   4      62.713 117.371  66.6040  0.00  0.00     0.000 OA
ATOM     75   S  A00 X   4      62.584 116.983  67.9720  0.00  0.00     0.000 S
ENDBRANCH 62 70
ENDBRANCH 57 61
ENDBRANCH 41 57
ENDBRANCH 40 44
ENDBRANCH 20 40
ENDBRANCH 19 23
ENDBRANCH 1 19
TORSDOF 14
ENDMDL
MODEL 53
REMARK VINA RESULT:      -0.4    185.639    190.744
ROOT
ATOM      1  C1  A00 X   1     160.691 198.387 171.8810  0.00  0.00     0.000 C
ATOM      2  C2  A00 X   1     160.255 197.708 173.2060  0.00  0.00     0.000 C
ATOM      3  C3  A00 X   1     160.093 198.654 174.4420  0.00  0.00     0.000 C
ATOM      4  C4  A00 X   1     160.730 200.060 174.2960  0.00  0.00     0.000 C
ATOM      5  C5  A00 X   1     161.836 200.085 173.2410  0.00  0.00     0.000 C
ATOM      6  O5  A00 X   1     161.171 199.749 172.0030  0.00  0.00     0.000 O
ATOM      7   O  A00 X   1     160.715 198.043 175.5700  0.00  0.00     0.000 O
ATOM      9  HD  A00 X   1     160.915 198.885 175.5930  0.00  0.00     0.000 HD
ATOM      9   O  A00 X   1     159.747 201.048 173.9880  0.00  0.00     0.000 O
ATOM     11  HD  A00 X   1     159.948 201.890 174.0110  0.00  0.00     0.000 HD
ENDROOT
BRANCH 2 11
ATOM     11   O  A00 X   1     159.004 197.035 172.9640  0.00  0.00     0.000 O
ATOM     12   O  A00 X   1     157.954 195.666 174.6340  0.00  0.00     0.000 OA
ATOM     13   O  A00 X   1     160.115 195.002 173.7380  0.00  0.00     0.000 OA
ATOM     14   O  A00 X   1     158.171 194.936 172.3680  0.00  0.00     0.000 OA
ATOM     15   S  A00 X   1     158.819 195.568 173.4860  0.00  0.00     0.000 S
ENDBRANCH 2 11
BRANCH 5 16
ATOM     16   C  A00 X   1     163.045 199.196 173.5490  0.00  0.00     0.000 C
ATOM     17   O  A00 X   1     163.869 199.013 172.6770  0.00  0.00     0.000 OA
ATOM     18   O  A00 X   1     163.211 198.674 174.6340  0.00  0.00     0.000 OA
ENDBRANCH 5 16
BRANCH 1 19
ATOM     19  O4  A00 X   2     161.605 197.572 171.1070  0.00  0.00     0.000 O
BRANCH 19 23
ATOM     20  C1  A00 X   2     159.959 198.768 167.3350  0.00  0.00     0.000 C
ATOM     21  C2  A00 X   2     159.487 197.416 167.9250  0.00  0.00     0.000 C
ATOM     22  C3  A00 X   2     159.811 197.331 169.4310  0.00  0.00     0.000 C
ATOM     23  C4  A00 X   2     161.311 197.604 169.6810  0.00  0.00     0.000 C
ATOM     24  C5  A00 X   2     161.660 198.970 169.0290  0.00  0.00     0.000 C
ATOM     25  O5  A00 X   2     161.380 198.895 167.6070  0.00  0.00     0.000 O
ATOM     26   O  A00 X   2     159.294 196.091 169.9440  0.00  0.00     0.000 O
ATOM     28  HD  A00 X   2     159.663 195.620 169.3180  0.00  0.00     0.000 HD
BRANCH 21 30
ATOM     28   N  A00 X   2     159.403 196.892 166.5580  0.00  0.00     0.000 N
ATOM     30  HD  A00 X   2     158.960 196.346 167.0630  0.00  0.00     0.000 HD
ATOM     30   O  A00 X   2     157.675 195.321 166.4850  0.00  0.00     0.000 OA
ATOM     31   S  A00 X   2     159.089 195.357 166.3520  0.00  0.00     0.000 S
ATOM     32   O  A00 X   2     159.578 195.084 165.0360  0.00  0.00     0.000 OA
ATOM     33   O  A00 X   2     159.851 194.634 167.3260  0.00  0.00     0.000 OA
ENDBRANCH 21 30
BRANCH 24 34
ATOM     34   C  A00 X   2     163.046 199.585 169.3330  0.00  0.00     0.000 C
ATOM     35   O  A00 X   2     165.582 200.248 166.8060  0.00  0.00     0.000 OA
ATOM     36   O  A00 X   2     163.952 199.404 168.2260  0.00  0.00     0.000 O
ATOM     37   O  A00 X   2     163.377 201.097 166.7190  0.00  0.00     0.000 OA
ATOM     38   S  A00 X   2     164.474 200.730 167.5620  0.00  0.00     0.000 S
ATOM     39   O  A00 X   2     164.811 201.616 168.6360  0.00  0.00     0.000 OA
ENDBRANCH 24 34
BRANCH 20 40
ATOM     40  O4  A00 X   3     159.239 199.778 168.0580  0.00  0.00     0.000 O
BRANCH 40 44
ATOM     41  C1  A00 X   3     159.279 202.990 169.7320  0.00  0.00     0.000 C
ATOM     42  C2  A00 X   3     158.042 202.072 169.6170  0.00  0.00     0.000 C
ATOM     43  C3  A00 X   3     157.808 201.638 168.1470  0.00  0.00     0.000 C
ATOM     44  C4  A00 X   3     159.038 201.072 167.4500  0.00  0.00     0.000 C
ATOM     45  C5  A00 X   3     160.236 202.051 167.6060  0.00  0.00     0.000 C
ATOM     46  O5  A00 X   3     160.414 202.442 169.0060  0.00  0.00     0.000 O
ATOM     47   O  A00 X   3     156.639 200.857 167.9080  0.00  0.00     0.000 O
ATOM     49  HD  A00 X   3     157.168 200.437 167.3650  0.00  0.00     0.000 HD
BRANCH 42 49
ATOM     49   O  A00 X   3     158.280 200.933 170.4730  0.00  0.00     0.000 O
ATOM     50   O  A00 X   3     157.129 198.906 171.0180  0.00  0.00     0.000 OA
ATOM     51   O  A00 X   3     155.886 200.909 170.8310  0.00  0.00     0.000 OA
ATOM     52   O  A00 X   3     157.397 200.684 172.6340  0.00  0.00     0.000 OA
ATOM     53   S  A00 X   3     157.113 200.308 171.2920  0.00  0.00     0.000 S
ENDBRANCH 42 49
BRANCH 45 54
ATOM     54   C  A00 X   3     160.116 203.249 166.6560  0.00  0.00     0.000 C
ATOM     55   O  A00 X   3     159.101 203.432 166.0150  0.00  0.00     0.000 OA
ATOM     56   O  A00 X   3     161.038 204.039 166.5260  0.00  0.00     0.000 OA
ENDBRANCH 45 54
BRANCH 41 57
ATOM     57  O4  A00 X   4     158.964 204.357 169.3850  0.00  0.00     0.000 O
BRANCH 57 61
ATOM     58  C1  A00 X   4     160.414 208.162 170.8190  0.00  0.00     0.000 C
ATOM     59  C2  A00 X   4     161.418 207.191 170.1480  0.00  0.00     0.000 C
ATOM     60  C3  A00 X   4     160.739 206.048 169.3670  0.00  0.00     0.000 C
ATOM     61  C4  A00 X   4     159.627 205.369 170.1950  0.00  0.00     0.000 C
ATOM     62  C5  A00 X   4     158.626 206.487 170.5810  0.00  0.00     0.000 C
ATOM     63  O5  A00 X   4     159.300 207.462 171.4180  0.00  0.00     0.000 O
BRANCH 59 66
ATOM     64   N  A00 X   4     162.249 206.527 171.1690  0.00  0.00     0.000 N
ATOM     66  HD  A00 X   4     161.906 206.420 171.9570  0.00  0.00     0.000 HD
ATOM     66   O  A00 X   4     163.625 208.503 171.1890  0.00  0.00     0.000 OA
ATOM     67   S  A00 X   4     163.719 207.098 171.4370  0.00  0.00     0.000 S
ATOM     68   O  A00 X   4     163.895 206.724 172.8100  0.00  0.00     0.000 OA
ATOM     69   O  A00 X   4     164.473 206.303 170.5100  0.00  0.00     0.000 OA
ENDBRANCH 59 66
BRANCH 62 70
ATOM     70   C  A00 X   4     157.370 205.980 171.3300  0.00  0.00     0.000 C
ATOM     71   O  A00 X   4     157.124 204.642 174.6850  0.00  0.00     0.000 OA
ATOM     72   O  A00 X   4     156.289 203.823 172.6410  0.00  0.00     0.000 OA
ATOM     73   O  A00 X   4     157.694 205.774 172.7140  0.00  0.00     0.000 O
ATOM     74   O  A00 X   4     158.664 203.610 173.1430  0.00  0.00     0.000 OA
ATOM     75   S  A00 X   4     157.454 204.347 173.3190  0.00  0.00     0.000 S
ENDBRANCH 62 70
ENDBRANCH 57 61
ENDBRANCH 41 57
ENDBRANCH 40 44
ENDBRANCH 20 40
ENDBRANCH 19 23
ENDBRANCH 1 19
TORSDOF 14
ENDMDL
MODEL 54
REMARK VINA RESULT:      -0.4    144.427    149.570
ROOT
ATOM      1  C1  A00 X   1      14.075  71.835  61.0200  0.00  0.00     0.000 C
ATOM      2  C2  A00 X   1      15.045  71.840  59.8080  0.00  0.00     0.000 C
ATOM      3  C3  A00 X   1      14.394  71.598  58.4060  0.00  0.00     0.000 C
ATOM      4  C4  A00 X   1      12.953  71.026  58.4280  0.00  0.00     0.000 C
ATOM      5  C5  A00 X   1      12.638  70.305  59.7390  0.00  0.00     0.000 C
ATOM      6  O5  A00 X   1      12.744  71.328  60.7540  0.00  0.00     0.000 O
ATOM      7   O  A00 X   1      15.191  70.660  57.6870  0.00  0.00     0.000 O
ATOM      9  HD  A00 X   1      14.363  70.454  57.5430  0.00  0.00     0.000 HD
ATOM      9   O  A00 X   1      11.983  72.046  58.1930  0.00  0.00     0.000 O
ATOM     11  HD  A00 X   1      11.154  71.840  58.0480  0.00  0.00     0.000 HD
ENDROOT
BRANCH 2 11
ATOM     11   O  A00 X   1      15.725  73.110  59.7960  0.00  0.00     0.000 O
ATOM     12   O  A00 X   1      17.149  73.771  57.9790  0.00  0.00     0.000 OA
ATOM     13   O  A00 X   1      17.766  71.849  59.3360  0.00  0.00     0.000 OA
ATOM     14   O  A00 X   1      17.816  74.041  60.2580  0.00  0.00     0.000 OA
ATOM     15   S  A00 X   1      17.207  73.172  59.2880  0.00  0.00     0.000 S
ENDBRANCH 2 11
BRANCH 5 16
ATOM     16   C  A00 X   1      13.498  69.069  60.0210  0.00  0.00     0.000 C
ATOM     17   O  A00 X   1      13.456  68.573  61.1280  0.00  0.00     0.000 OA
ATOM     18   O  A00 X   1      14.213  68.565  59.1780  0.00  0.00     0.000 OA
ENDBRANCH 5 16
BRANCH 1 19
ATOM     19  O4  A00 X   2      14.651  71.217  62.1960  0.00  0.00     0.000 O
BRANCH 19 23
ATOM     20  C1  A00 X   2      12.959  74.077  64.9030  0.00  0.00     0.000 C
ATOM     21  C2  A00 X   2      14.428  74.290  64.4650  0.00  0.00     0.000 C
ATOM     22  C3  A00 X   2      14.748  73.470  63.1980  0.00  0.00     0.000 C
ATOM     23  C4  A00 X   2      14.395  71.981  63.4100  0.00  0.00     0.000 C
ATOM     24  C5  A00 X   2      12.911  71.905  63.8610  0.00  0.00     0.000 C
ATOM     25  O5  A00 X   2      12.759  72.652  65.0960  0.00  0.00     0.000 O
ATOM     26   O  A00 X   2      16.099  73.754  62.7940  0.00  0.00     0.000 O
ATOM     28  HD  A00 X   2      16.419  73.610  63.5860  0.00  0.00     0.000 HD
BRANCH 21 30
ATOM     28   N  A00 X   2      14.710  74.823  65.8020  0.00  0.00     0.000 N
ATOM     30  HD  A00 X   2      15.372  75.055  65.2940  0.00  0.00     0.000 HD
ATOM     30   O  A00 X   2      16.386  76.438  65.6020  0.00  0.00     0.000 OA
ATOM     31   S  A00 X   2      16.207  75.156  66.1850  0.00  0.00     0.000 S
ATOM     32   O  A00 X   2      16.202  75.138  67.6150  0.00  0.00     0.000 OA
ATOM     33   O  A00 X   2      17.021  74.092  65.6770  0.00  0.00     0.000 OA
ENDBRANCH 21 30
BRANCH 24 34
ATOM     34   C  A00 X   2      12.241  70.512  63.9200  0.00  0.00     0.000 C
ATOM     35   O  A00 X   2      13.469  67.739  65.9360  0.00  0.00     0.000 OA
ATOM     36   O  A00 X   2      13.123  69.531  64.5010  0.00  0.00     0.000 O
ATOM     37   O  A00 X   2      12.934  69.872  66.8080  0.00  0.00     0.000 OA
ATOM     38   S  A00 X   2      12.610  68.874  65.8350  0.00  0.00     0.000 S
ATOM     39   O  A00 X   2      11.226  68.570  65.6300  0.00  0.00     0.000 OA
ENDBRANCH 24 34
BRANCH 20 40
ATOM     40  O4  A00 X   3      12.157  74.529  63.8010  0.00  0.00     0.000 O
BRANCH 40 44
ATOM     41  C1  A00 X   3       9.328  73.871  61.6360  0.00  0.00     0.000 C
ATOM     42  C2  A00 X   3      10.272  75.087  61.5070  0.00  0.00     0.000 C
ATOM     43  C3  A00 X   3      10.428  75.815  62.8670  0.00  0.00     0.000 C
ATOM     44  C4  A00 X   3      10.783  74.905  64.0350  0.00  0.00     0.000 C
ATOM     45  C5  A00 X   3       9.789  73.712  64.1020  0.00  0.00     0.000 C
ATOM     46  O5  A00 X   3       9.664  73.061  62.7960  0.00  0.00     0.000 O
ATOM     47   O  A00 X   3      11.211  77.007  62.8480  0.00  0.00     0.000 O
ATOM     49  HD  A00 X   3      11.489  76.702  63.6090  0.00  0.00     0.000 HD
BRANCH 42 49
ATOM     49   O  A00 X   3      11.539  74.589  61.0260  0.00  0.00     0.000 O
ATOM     50   O  A00 X   3      13.694  75.514  60.5450  0.00  0.00     0.000 OA
ATOM     51   O  A00 X   3      11.765  76.721  59.9030  0.00  0.00     0.000 OA
ATOM     52   O  A00 X   3      12.248  74.693  58.7890  0.00  0.00     0.000 OA
ATOM     53   S  A00 X   3      12.374  75.418  60.0060  0.00  0.00     0.000 S
ENDBRANCH 42 49
BRANCH 45 54
ATOM     54   C  A00 X   3       8.439  74.130  64.6980  0.00  0.00     0.000 C
ATOM     55   O  A00 X   3       7.604  73.297  64.9840  0.00  0.00     0.000 OA
ATOM     56   O  A00 X   3       8.181  75.308  64.8950  0.00  0.00     0.000 OA
ENDBRANCH 45 54
BRANCH 41 57
ATOM     57  O4  A00 X   4       7.939  74.265  61.5780  0.00  0.00     0.000 O
BRANCH 57 61
ATOM     58  C1  A00 X   4       4.406  72.352  59.9990  0.00  0.00     0.000 C
ATOM     59  C2  A00 X   4       5.179  71.651  61.1430  0.00  0.00     0.000 C
ATOM     60  C3  A00 X   4       6.186  72.574  61.8590  0.00  0.00     0.000 C
ATOM     61  C4  A00 X   4       7.066  73.350  60.8560  0.00  0.00     0.000 C
ATOM     62  C5  A00 X   4       6.095  74.142  59.9460  0.00  0.00     0.000 C
ATOM     63  O5  A00 X   4       5.263  73.208  59.2100  0.00  0.00     0.000 O
BRANCH 59 66
ATOM     64   N  A00 X   4       5.974  70.544  60.5830  0.00  0.00     0.000 N
ATOM     66  HD  A00 X   4       6.227  70.610  59.7580  0.00  0.00     0.000 HD
ATOM     66   O  A00 X   4       3.977  69.200  60.6690  0.00  0.00     0.000 OA
ATOM     67   S  A00 X   4       5.399  69.057  60.7140  0.00  0.00     0.000 S
ATOM     68   O  A00 X   4       5.995  68.447  59.5620  0.00  0.00     0.000 OA
ATOM     69   O  A00 X   4       5.993  68.664  61.9610  0.00  0.00     0.000 OA
ENDBRANCH 59 66
BRANCH 62 70
ATOM     70   C  A00 X   4       6.798  75.077  58.9330  0.00  0.00     0.000 C
ATOM     71   O  A00 X   4       8.755  74.192  56.0190  0.00  0.00     0.000 OA
ATOM     72   O  A00 X   4       9.217  75.683  57.7820  0.00  0.00     0.000 OA
ATOM     73   O  A00 X   4       7.244  74.307  57.8060  0.00  0.00     0.000 O
ATOM     74   O  A00 X   4       9.396  73.281  58.1570  0.00  0.00     0.000 OA
ATOM     75   S  A00 X   4       8.770  74.349  57.4460  0.00  0.00     0.000 S
ENDBRANCH 62 70
ENDBRANCH 57 61
ENDBRANCH 41 57
ENDBRANCH 40 44
ENDBRANCH 20 40
ENDBRANCH 19 23
ENDBRANCH 1 19
TORSDOF 14
ENDMDL
MODEL 55
REMARK VINA RESULT:      -0.4    100.360    104.959
ROOT
ATOM      1  C1  A00 X   1      56.027  26.477  61.2960  0.00  0.00     0.000 C
ATOM      2  C2  A00 X   1      57.294  26.101  62.1100  0.00  0.00     0.000 C
ATOM      3  C3  A00 X   1      58.646  26.690  61.5880  0.00  0.00     0.000 C
ATOM      4  C4  A00 X   1      58.615  27.258  60.1460  0.00  0.00     0.000 C
ATOM      5  C5  A00 X   1      57.474  26.668  59.3170  0.00  0.00     0.000 C
ATOM      6  O5  A00 X   1      56.271  27.082  60.0020  0.00  0.00     0.000 O
ATOM      7   O  A00 X   1      59.628  25.657  61.5960  0.00  0.00     0.000 O
ATOM      9  HD  A00 X   1      59.735  26.106  60.8630  0.00  0.00     0.000 HD
ATOM      9   O  A00 X   1      58.523  28.682  60.1480  0.00  0.00     0.000 O
ATOM     11  HD  A00 X   1      58.631  29.131  59.4150  0.00  0.00     0.000 HD
ENDROOT
BRANCH 2 11
ATOM     11   O  A00 X   1      57.087  26.534  63.4690  0.00  0.00     0.000 O
ATOM     12   O  A00 X   1      58.681  26.075  65.2050  0.00  0.00     0.000 OA
ATOM     13   O  A00 X   1      57.537  24.223  64.1200  0.00  0.00     0.000 OA
ATOM     14   O  A00 X   1      56.340  25.722  65.5260  0.00  0.00     0.000 OA
ATOM     15   S  A00 X   1      57.460  25.560  64.6390  0.00  0.00     0.000 S
ENDBRANCH 2 11
BRANCH 5 16
ATOM     16   C  A00 X   1      57.557  25.156  59.0850  0.00  0.00     0.000 C
ATOM     17   O  A00 X   1      56.598  24.588  58.6030  0.00  0.00     0.000 OA
ATOM     18   O  A00 X   1      58.548  24.508  59.3570  0.00  0.00     0.000 OA
ENDBRANCH 5 16
BRANCH 1 19
ATOM     19  O4  A00 X   2      55.078  25.387  61.2000  0.00  0.00     0.000 O
BRANCH 19 23
ATOM     20  C1  A00 X   2      51.649  27.944  61.4680  0.00  0.00     0.000 C
ATOM     21  C2  A00 X   2      52.115  27.236  62.7630  0.00  0.00     0.000 C
ATOM     22  C3  A00 X   2      53.563  26.722  62.6170  0.00  0.00     0.000 C
ATOM     23  C4  A00 X   2      53.700  25.830  61.3630  0.00  0.00     0.000 C
ATOM     24  C5  A00 X   2      53.186  26.644  60.1440  0.00  0.00     0.000 C
ATOM     25  O5  A00 X   2      51.798  27.002  60.3720  0.00  0.00     0.000 O
ATOM     26   O  A00 X   2      53.971  26.135  63.8650  0.00  0.00     0.000 O
ATOM     28  HD  A00 X   2      53.261  25.643  63.9230  0.00  0.00     0.000 HD
BRANCH 21 30
ATOM     28   N  A00 X   2      50.709  27.144  63.1670  0.00  0.00     0.000 N
ATOM     30  HD  A00 X   2      51.184  26.986  63.8740  0.00  0.00     0.000 HD
ATOM     30   O  A00 X   2      50.615  27.247  65.4990  0.00  0.00     0.000 OA
ATOM     31   S  A00 X   2      50.345  26.315  64.4630  0.00  0.00     0.000 S
ATOM     32   O  A00 X   2      48.962  25.995  64.2830  0.00  0.00     0.000 OA
ATOM     33   O  A00 X   2      51.138  25.122  64.4390  0.00  0.00     0.000 OA
ENDBRANCH 21 30
BRANCH 24 34
ATOM     34   C  A00 X   2      53.428  26.064  58.7300  0.00  0.00     0.000 C
ATOM     35   O  A00 X   2      50.770  25.202  56.3960  0.00  0.00     0.000 OA
ATOM     36   O  A00 X   2      52.220  25.497  58.1840  0.00  0.00     0.000 O
ATOM     37   O  A00 X   2      51.027  27.339  57.3740  0.00  0.00     0.000 OA
ATOM     38   S  A00 X   2      51.695  26.179  56.8680  0.00  0.00     0.000 S
ATOM     39   O  A00 X   2      52.840  26.384  56.0330  0.00  0.00     0.000 OA
ENDBRANCH 24 34
BRANCH 20 40
ATOM     40  O4  A00 X   3      52.552  29.044  61.2810  0.00  0.00     0.000 O
BRANCH 40 44
ATOM     41  C1  A00 X   3      54.585  31.018  59.0240  0.00  0.00     0.000 C
ATOM     42  C2  A00 X   3      54.480  31.252  60.5470  0.00  0.00     0.000 C
ATOM     43  C3  A00 X   3      52.998  31.333  60.9950  0.00  0.00     0.000 C
ATOM     44  C4  A00 X   3      52.125  30.184  60.5050  0.00  0.00     0.000 C
ATOM     45  C5  A00 X   3      52.281  30.015  58.9680  0.00  0.00     0.000 C
ATOM     46  O5  A00 X   3      53.694  29.953  58.5890  0.00  0.00     0.000 O
ATOM     47   O  A00 X   3      52.778  31.634  62.3710  0.00  0.00     0.000 O
ATOM     49  HD  A00 X   3      52.142  31.053  62.2810  0.00  0.00     0.000 HD
BRANCH 42 49
ATOM     49   O  A00 X   3      55.167  30.157  61.1920  0.00  0.00     0.000 O
ATOM     50   O  A00 X   3      55.575  29.454  63.4440  0.00  0.00     0.000 OA
ATOM     51   O  A00 X   3      55.746  31.753  62.9180  0.00  0.00     0.000 OA
ATOM     52   O  A00 X   3      57.358  30.270  62.0290  0.00  0.00     0.000 OA
ATOM     53   S  A00 X   3      56.014  30.407  62.4740  0.00  0.00     0.000 S
ENDBRANCH 42 49
BRANCH 45 54
ATOM     54   C  A00 X   3      51.496  31.082  58.1960  0.00  0.00     0.000 C
ATOM     55   O  A00 X   3      51.398  31.026  56.9870  0.00  0.00     0.000 OA
ATOM     56   O  A00 X   3      50.957  32.008  58.7830  0.00  0.00     0.000 OA
ENDBRANCH 45 54
BRANCH 41 57
ATOM     57  O4  A00 X   4      54.435  32.249  58.2830  0.00  0.00     0.000 O
BRANCH 57 61
ATOM     58  C1  A00 X   4      56.153  33.685  54.5920  0.00  0.00     0.000 C
ATOM     59  C2  A00 X   4      55.277  32.408  54.5540  0.00  0.00     0.000 C
ATOM     60  C3  A00 X   4      54.439  32.200  55.8320  0.00  0.00     0.000 C
ATOM     61  C4  A00 X   4      55.288  32.372  57.1100  0.00  0.00     0.000 C
ATOM     62  C5  A00 X   4      55.899  33.793  57.0380  0.00  0.00     0.000 C
ATOM     63  O5  A00 X   4      56.773  33.879  55.8840  0.00  0.00     0.000 O
BRANCH 59 66
ATOM     64   N  A00 X   4      55.896  31.080  54.3940  0.00  0.00     0.000 N
ATOM     66  HD  A00 X   4      56.668  30.951  54.7650  0.00  0.00     0.000 HD
ATOM     66   O  A00 X   4      56.240  31.630  52.0750  0.00  0.00     0.000 OA
ATOM     67   S  A00 X   4      56.051  30.489  52.9160  0.00  0.00     0.000 S
ATOM     68   O  A00 X   4      57.202  29.653  53.0910  0.00  0.00     0.000 OA
ATOM     69   O  A00 X   4      54.814  29.770  52.8000  0.00  0.00     0.000 OA
ENDBRANCH 59 66
BRANCH 62 70
ATOM     70   C  A00 X   4      56.705  34.199  58.2960  0.00  0.00     0.000 C
ATOM     71   O  A00 X   4      59.882  32.911  59.4590  0.00  0.00     0.000 OA
ATOM     72   O  A00 X   4      57.850  33.241  60.6010  0.00  0.00     0.000 OA
ATOM     73   O  A00 X   4      58.014  33.612  58.2300  0.00  0.00     0.000 O
ATOM     74   O  A00 X   4      58.080  31.356  59.0740  0.00  0.00     0.000 OA
ATOM     75   S  A00 X   4      58.464  32.688  59.4150  0.00  0.00     0.000 S
ENDBRANCH 62 70
ENDBRANCH 57 61
ENDBRANCH 41 57
ENDBRANCH 40 44
ENDBRANCH 20 40
ENDBRANCH 19 23
ENDBRANCH 1 19
TORSDOF 14
ENDMDL
MODEL 56
REMARK VINA RESULT:      -0.4    198.726    203.829
ROOT
ATOM      1  C1  A00 X   1     201.599 202.717 182.1880  0.00  0.00     0.000 C
ATOM      2  C2  A00 X   1     202.239 203.419 180.9610  0.00  0.00     0.000 C
ATOM      3  C3  A00 X   1     203.704 203.935 181.1510  0.00  0.00     0.000 C
ATOM      4  C4  A00 X   1     204.198 204.017 182.6180  0.00  0.00     0.000 C
ATOM      5  C5  A00 X   1     203.042 204.108 183.6130  0.00  0.00     0.000 C
ATOM      6  O5  A00 X   1     202.311 202.873 183.4410  0.00  0.00     0.000 O
ATOM      7   O  A00 X   1     203.796 205.255 180.6180  0.00  0.00     0.000 O
ATOM      9  HD  A00 X   1     204.244 205.247 181.3600  0.00  0.00     0.000 HD
ATOM      9   O  A00 X   1     205.034 202.909 182.9490  0.00  0.00     0.000 O
ATOM     11  HD  A00 X   1     205.482 202.901 183.6910  0.00  0.00     0.000 HD
ENDROOT
BRANCH 2 11
ATOM     11   O  A00 X   1     202.208 202.491 179.8590  0.00  0.00     0.000 O
ATOM     12   O  A00 X   1     203.291 202.965 177.7690  0.00  0.00     0.000 OA
ATOM     13   O  A00 X   1     201.437 204.363 178.4930  0.00  0.00     0.000 OA
ATOM     14   O  A00 X   1     201.065 202.100 177.8610  0.00  0.00     0.000 OA
ATOM     15   S  A00 X   1     202.002 203.045 178.4070  0.00  0.00     0.000 S
ENDBRANCH 2 11
BRANCH 5 16
ATOM     16   C  A00 X   1     202.169 205.360 183.4790  0.00  0.00     0.000 C
ATOM     17   O  A00 X   1     201.115 205.401 184.0800  0.00  0.00     0.000 OA
ATOM     18   O  A00 X   1     202.496 206.314 182.8010  0.00  0.00     0.000 OA
ENDBRANCH 5 16
BRANCH 1 19
ATOM     19  O4  A00 X   2     200.192 203.023 182.3390  0.00  0.00     0.000 O
BRANCH 19 23
ATOM     20  C1  A00 X   2     199.139 199.049 183.5500  0.00  0.00     0.000 C
ATOM     21  C2  A00 X   2     198.933 199.420 182.0620  0.00  0.00     0.000 C
ATOM     22  C3  A00 X   2     199.738 200.685 181.6950  0.00  0.00     0.000 C
ATOM     23  C4  A00 X   2     199.395 201.846 182.6560  0.00  0.00     0.000 C
ATOM     24  C5  A00 X   2     199.623 201.343 184.1070  0.00  0.00     0.000 C
ATOM     25  O5  A00 X   2     198.759 200.202 184.3480  0.00  0.00     0.000 O
ATOM     26   O  A00 X   2     199.569 200.948 180.2910  0.00  0.00     0.000 O
ATOM     28  HD  A00 X   2     198.706 200.890 180.3330  0.00  0.00     0.000 HD
BRANCH 21 30
ATOM     28   N  A00 X   2     197.749 198.556 182.0490  0.00  0.00     0.000 N
ATOM     30  HD  A00 X   2     197.957 198.709 181.2220  0.00  0.00     0.000 HD
ATOM     30   O  A00 X   2     197.536 197.647 179.9070  0.00  0.00     0.000 OA
ATOM     31   S  A00 X   2     196.835 198.541 180.7590  0.00  0.00     0.000 S
ATOM     32   O  A00 X   2     195.578 198.057 181.2400  0.00  0.00     0.000 OA
ATOM     33   O  A00 X   2     196.708 199.897 180.3140  0.00  0.00     0.000 OA
ENDBRANCH 21 30
BRANCH 24 34
ATOM     34   C  A00 X   2     199.572 202.383 185.2520  0.00  0.00     0.000 C
ATOM     35   O  A00 X   2     196.703 204.516 185.9440  0.00  0.00     0.000 OA
ATOM     36   O  A00 X   2     198.482 203.308 185.0680  0.00  0.00     0.000 O
ATOM     37   O  A00 X   2     196.601 202.155 185.8460  0.00  0.00     0.000 OA
ATOM     38   S  A00 X   2     197.392 203.294 186.2020  0.00  0.00     0.000 S
ATOM     39   O  A00 X   2     198.101 203.248 187.4450  0.00  0.00     0.000 OA
ENDBRANCH 24 34
BRANCH 20 40
ATOM     40  O4  A00 X   3     200.545 198.806 183.6980  0.00  0.00     0.000 O
BRANCH 40 44
ATOM     41  C1  A00 X   3     203.539 199.339 185.6680  0.00  0.00     0.000 C
ATOM     42  C2  A00 X   3     203.490 198.564 184.3330  0.00  0.00     0.000 C
ATOM     43  C3  A00 X   3     202.374 197.487 184.3580  0.00  0.00     0.000 C
ATOM     44  C4  A00 X   3     201.010 197.998 184.8020  0.00  0.00     0.000 C
ATOM     45  C5  A00 X   3     201.140 198.761 186.1500  0.00  0.00     0.000 C
ATOM     46  O5  A00 X   3     202.210 199.759 186.0850  0.00  0.00     0.000 O
ATOM     47   O  A00 X   3     202.293 196.649 183.2070  0.00  0.00     0.000 O
ATOM     49  HD  A00 X   3     201.442 196.738 183.3410  0.00  0.00     0.000 HD
BRANCH 42 49
ATOM     49   O  A00 X   3     203.264 199.534 183.2880  0.00  0.00     0.000 O
ATOM     50   O  A00 X   3     202.926 199.482 180.9190  0.00  0.00     0.000 OA
ATOM     51   O  A00 X   3     204.565 198.068 181.8690  0.00  0.00     0.000 OA
ATOM     52   O  A00 X   3     204.940 200.401 181.8910  0.00  0.00     0.000 OA
ATOM     53   S  A00 X   3     203.956 199.374 181.9030  0.00  0.00     0.000 S
ENDBRANCH 42 49
BRANCH 45 54
ATOM     54   C  A00 X   3     201.285 197.798 187.3350  0.00  0.00     0.000 C
ATOM     55   O  A00 X   3     201.328 196.598 187.1560  0.00  0.00     0.000 OA
ATOM     56   O  A00 X   3     201.357 198.221 188.4790  0.00  0.00     0.000 OA
ENDBRANCH 45 54
BRANCH 41 57
ATOM     57  O4  A00 X   4     204.270 198.613 186.6810  0.00  0.00     0.000 O
BRANCH 57 61
ATOM     58  C1  A00 X   4     206.789 199.866 189.9550  0.00  0.00     0.000 C
ATOM     59  C2  A00 X   4     205.302 200.300 189.9560  0.00  0.00     0.000 C
ATOM     60  C3  A00 X   4     204.432 199.512 188.9560  0.00  0.00     0.000 C
ATOM     61  C4  A00 X   4     205.089 199.435 187.5610  0.00  0.00     0.000 C
ATOM     62  C5  A00 X   4     206.477 198.780 187.7690  0.00  0.00     0.000 C
ATOM     63  O5  A00 X   4     207.285 199.634 188.6170  0.00  0.00     0.000 O
BRANCH 59 66
ATOM     64   N  A00 X   4     205.225 201.713 189.5430  0.00  0.00     0.000 N
ATOM     66  HD  A00 X   4     205.857 202.016 189.0340  0.00  0.00     0.000 HD
ATOM     66   O  A00 X   4     205.723 202.303 191.8240  0.00  0.00     0.000 OA
ATOM     67   S  A00 X   4     205.046 202.825 190.6780  0.00  0.00     0.000 S
ATOM     68   O  A00 X   4     205.678 203.945 190.0440  0.00  0.00     0.000 OA
ATOM     69   O  A00 X   4     203.613 202.909 190.7270  0.00  0.00     0.000 OA
ENDBRANCH 59 66
BRANCH 62 70
ATOM     70   C  A00 X   4     207.253 198.513 186.4570  0.00  0.00     0.000 C
ATOM     71   O  A00 X   4     208.731 200.907 184.1780  0.00  0.00     0.000 OA
ATOM     72   O  A00 X   4     207.320 199.067 183.7680  0.00  0.00     0.000 OA
ATOM     73   O  A00 X   4     207.868 199.733 186.0130  0.00  0.00     0.000 O
ATOM     74   O  A00 X   4     206.388 201.114 184.7060  0.00  0.00     0.000 OA
ATOM     75   S  A00 X   4     207.517 200.251 184.5750  0.00  0.00     0.000 S
ENDBRANCH 62 70
ENDBRANCH 57 61
ENDBRANCH 41 57
ENDBRANCH 40 44
ENDBRANCH 20 40
ENDBRANCH 19 23
ENDBRANCH 1 19
TORSDOF 14
ENDMDL
MODEL 57
REMARK VINA RESULT:      -0.4    120.264    124.961
ROOT
ATOM      1  C1  A00 X   1      42.827  94.618  77.9110  0.00  0.00     0.000 C
ATOM      2  C2  A00 X   1      41.457  95.314  78.1310  0.00  0.00     0.000 C
ATOM      3  C3  A00 X   1      41.342  96.219  79.4010  0.00  0.00     0.000 C
ATOM      4  C4  A00 X   1      42.456  96.026  80.4630  0.00  0.00     0.000 C
ATOM      5  C5  A00 X   1      43.129  94.658  80.3510  0.00  0.00     0.000 C
ATOM      6  O5  A00 X   1      43.735  94.654  79.0390  0.00  0.00     0.000 O
ATOM      7   O  A00 X   1      40.107  95.937  80.0550  0.00  0.00     0.000 O
ATOM      9  HD  A00 X   1      40.709  96.022  80.6720  0.00  0.00     0.000 HD
ATOM      9   O  A00 X   1      43.441  97.056  80.3790  0.00  0.00     0.000 O
ATOM     11  HD  A00 X   1      44.042  97.141  80.9960  0.00  0.00     0.000 HD
ENDROOT
BRANCH 2 11
ATOM     11   O  A00 X   1      41.175  96.107  76.9620  0.00  0.00     0.000 O
ATOM     12   O  A00 X   1      39.103  97.293  76.7010  0.00  0.00     0.000 OA
ATOM     13   O  A00 X   1      39.079  94.863  76.8000  0.00  0.00     0.000 OA
ATOM     14   O  A00 X   1      40.031  95.983  74.9300  0.00  0.00     0.000 OA
ATOM     15   S  A00 X   1      39.739  96.053  76.3360  0.00  0.00     0.000 S
ENDBRANCH 2 11
BRANCH 5 16
ATOM     16   C  A00 X   1      42.208  93.461  80.6050  0.00  0.00     0.000 C
ATOM     17   O  A00 X   1      42.615  92.348  80.3420  0.00  0.00     0.000 OA
ATOM     18   O  A00 X   1      41.090  93.584  81.0650  0.00  0.00     0.000 OA
ENDBRANCH 5 16
BRANCH 1 19
ATOM     19  O4  A00 X   2      42.696  93.277  77.3790  0.00  0.00     0.000 O
BRANCH 19 23
ATOM     20  C1  A00 X   2      46.163  93.601  74.8810  0.00  0.00     0.000 C
ATOM     21  C2  A00 X   2      44.783  93.841  74.2230  0.00  0.00     0.000 C
ATOM     22  C3  A00 X   2      43.705  94.119  75.2910  0.00  0.00     0.000 C
ATOM     23  C4  A00 X   2      43.679  92.988  76.3440  0.00  0.00     0.000 C
ATOM     24  C5  A00 X   2      45.117  92.835  76.9120  0.00  0.00     0.000 C
ATOM     25  O5  A00 X   2      46.017  92.505  75.8230  0.00  0.00     0.000 O
ATOM     26   O  A00 X   2      42.461  94.402  74.6290  0.00  0.00     0.000 O
ATOM     28  HD  A00 X   2      42.509  93.697  74.1280  0.00  0.00     0.000 HD
BRANCH 21 30
ATOM     28   N  A00 X   2      45.302  93.226  72.9970  0.00  0.00     0.000 N
ATOM     30  HD  A00 X   2      44.578  93.648  72.7780  0.00  0.00     0.000 HD
ATOM     30   O  A00 X   2      44.251  94.241  71.1730  0.00  0.00     0.000 OA
ATOM     31   S  A00 X   2      44.305  92.967  71.7980  0.00  0.00     0.000 S
ATOM     32   O  A00 X   2      44.953  91.946  71.0330  0.00  0.00     0.000 OA
ATOM     33   O  A00 X   2      43.086  92.468  72.3610  0.00  0.00     0.000 OA
ENDBRANCH 21 30
BRANCH 24 34
ATOM     34   C  A00 X   2      45.316  91.926  78.1480  0.00  0.00     0.000 C
ATOM     35   O  A00 X   2      47.343  88.902  78.1510  0.00  0.00     0.000 OA
ATOM     36   O  A00 X   2      45.857  90.644  77.7720  0.00  0.00     0.000 O
ATOM     37   O  A00 X   2      48.150  91.033  77.5160  0.00  0.00     0.000 OA
ATOM     38   S  A00 X   2      47.268  90.307  78.3790  0.00  0.00     0.000 S
ATOM     39   O  A00 X   2      47.220  90.697  79.7560  0.00  0.00     0.000 OA
ENDBRANCH 24 34
BRANCH 20 40
ATOM     40  O4  A00 X   3      46.468  94.808  75.5940  0.00  0.00     0.000 O
BRANCH 40 44
ATOM     41  C1  A00 X   3      47.724  96.343  78.6250  0.00  0.00     0.000 C
ATOM     42  C2  A00 X   3      47.188  97.119  77.4030  0.00  0.00     0.000 C
ATOM     43  C3  A00 X   3      47.864  96.630  76.0960  0.00  0.00     0.000 C
ATOM     44  C4  A00 X   3      47.844  95.120  75.8990  0.00  0.00     0.000 C
ATOM     45  C5  A00 X   3      48.401  94.411  77.1660  0.00  0.00     0.000 C
ATOM     46  O5  A00 X   3      47.744  94.910  78.3760  0.00  0.00     0.000 O
ATOM     47   O  A00 X   3      47.508  97.338  74.9090  0.00  0.00     0.000 O
ATOM     49  HD  A00 X   3      47.532  96.544  74.5640  0.00  0.00     0.000 HD
BRANCH 42 49
ATOM     49   O  A00 X   3      45.759  96.916  77.3670  0.00  0.00     0.000 O
ATOM     50   O  A00 X   3      43.955  97.552  75.9270  0.00  0.00     0.000 OA
ATOM     51   O  A00 X   3      45.631  99.143  76.4270  0.00  0.00     0.000 OA
ATOM     52   O  A00 X   3      44.175  98.458  78.1580  0.00  0.00     0.000 OA
ATOM     53   S  A00 X   3      44.811  98.076  76.9450  0.00  0.00     0.000 S
ENDBRANCH 42 49
BRANCH 45 54
ATOM     54   C  A00 X   3      49.931  94.491  77.2340  0.00  0.00     0.000 C
ATOM     55   O  A00 X   3      50.548  93.848  78.0590  0.00  0.00     0.000 OA
ATOM     56   O  A00 X   3      50.555  95.202  76.4620  0.00  0.00     0.000 OA
ENDBRANCH 45 54
BRANCH 41 57
ATOM     57  O4  A00 X   4      48.987  96.876  79.0850  0.00  0.00     0.000 O
BRANCH 57 61
ATOM     58  C1  A00 X   4      50.769  97.244  83.0000  0.00  0.00     0.000 C
ATOM     59  C2  A00 X   4      50.437  95.828  82.4660  0.00  0.00     0.000 C
ATOM     60  C3  A00 X   4      50.150  95.793  80.9520  0.00  0.00     0.000 C
ATOM     61  C4  A00 X   4      49.158  96.898  80.5310  0.00  0.00     0.000 C
ATOM     62  C5  A00 X   4      49.789  98.242  80.9750  0.00  0.00     0.000 C
ATOM     63  O5  A00 X   4      49.915  98.255  82.4200  0.00  0.00     0.000 O
BRANCH 59 66
ATOM     64   N  A00 X   4      49.212  95.329  83.1160  0.00  0.00     0.000 N
ATOM     66  HD  A00 X   4      48.637  95.916  83.3900  0.00  0.00     0.000 HD
ATOM     66   O  A00 X   4      50.588  94.673  84.9810  0.00  0.00     0.000 OA
ATOM     67   S  A00 X   4      49.365  94.307  84.3380  0.00  0.00     0.000 S
ATOM     68   O  A00 X   4      48.169  94.602  85.0720  0.00  0.00     0.000 OA
ATOM     69   O  A00 X   4      49.327  93.059  83.6300  0.00  0.00     0.000 OA
ENDBRANCH 59 66
BRANCH 62 70
ATOM     70   C  A00 X   4      48.986  99.491  80.5390  0.00  0.00     0.000 C
ATOM     71   O  A00 X   4      45.763 100.635  81.7260  0.00  0.00     0.000 OA
ATOM     72   O  A00 X   4      46.575 100.340  79.5360  0.00  0.00     0.000 OA
ATOM     73   O  A00 X   4      47.887  99.688  81.4430  0.00  0.00     0.000 O
ATOM     74   O  A00 X   4      45.942  98.392  80.8570  0.00  0.00     0.000 OA
ATOM     75   S  A00 X   4      46.440  99.730  80.8400  0.00  0.00     0.000 S
ENDBRANCH 62 70
ENDBRANCH 57 61
ENDBRANCH 41 57
ENDBRANCH 40 44
ENDBRANCH 20 40
ENDBRANCH 19 23
ENDBRANCH 1 19
TORSDOF 14
ENDMDL
MODEL 58
REMARK VINA RESULT:      -0.4    121.187    125.827
ROOT
ATOM      1  C1  A00 X   1      42.047  94.476  79.5860  0.00  0.00     0.000 C
ATOM      2  C2  A00 X   1      40.686  95.221  79.6040  0.00  0.00     0.000 C
ATOM      3  C3  A00 X   1      40.575  96.429  80.5920  0.00  0.00     0.000 C
ATOM      4  C4  A00 X   1      41.680  96.508  81.6770  0.00  0.00     0.000 C
ATOM      5  C5  A00 X   1      42.336  95.152  81.9340  0.00  0.00     0.000 C
ATOM      6  O5  A00 X   1      42.950  94.796  80.6740  0.00  0.00     0.000 O
ATOM      7   O  A00 X   1      39.333  96.341  81.2850  0.00  0.00     0.000 O
ATOM      9  HD  A00 X   1      39.932  96.579  81.8640  0.00  0.00     0.000 HD
ATOM      9   O  A00 X   1      42.679  97.470  81.3350  0.00  0.00     0.000 O
ATOM     11  HD  A00 X   1      43.278  97.707  81.9140  0.00  0.00     0.000 HD
ENDROOT
BRANCH 2 11
ATOM     11   O  A00 X   1      40.421  95.683  78.2650  0.00  0.00     0.000 O
ATOM     12   O  A00 X   1      38.367  96.782  77.6840  0.00  0.00     0.000 OA
ATOM     13   O  A00 X   1      38.310  94.463  78.4160  0.00  0.00     0.000 OA
ATOM     14   O  A00 X   1      39.288  95.043  76.3270  0.00  0.00     0.000 OA
ATOM     15   S  A00 X   1      38.988  95.482  77.6630  0.00  0.00     0.000 S
ENDBRANCH 2 11
BRANCH 5 16
ATOM     16   C  A00 X   1      41.397  94.073  82.4840  0.00  0.00     0.000 C
ATOM     17   O  A00 X   1      41.792  92.926  82.5250  0.00  0.00     0.000 OA
ATOM     18   O  A00 X   1      40.279  94.325  82.8860  0.00  0.00     0.000 OA
ENDBRANCH 5 16
BRANCH 1 19
ATOM     19  O4  A00 X   2      41.902  93.044  79.4240  0.00  0.00     0.000 O
BRANCH 19 23
ATOM     20  C1  A00 X   2      45.387  92.663  76.9600  0.00  0.00     0.000 C
ATOM     21  C2  A00 X   2      44.014  92.737  76.2490  0.00  0.00     0.000 C
ATOM     22  C3  A00 X   2      42.934  93.298  77.1980  0.00  0.00     0.000 C
ATOM     23  C4  A00 X   2      42.887  92.483  78.5100  0.00  0.00     0.000 C
ATOM     24  C5  A00 X   2      44.319  92.468  79.1110  0.00  0.00     0.000 C
ATOM     25  O5  A00 X   2      45.221  91.854  78.1550  0.00  0.00     0.000 O
ATOM     26   O  A00 X   2      41.698  93.411  76.4730  0.00  0.00     0.000 O
ATOM     28  HD  A00 X   2      41.740  92.599  76.1750  0.00  0.00     0.000 HD
BRANCH 21 30
ATOM     28   N  A00 X   2      44.532  91.817  75.2320  0.00  0.00     0.000 N
ATOM     30  HD  A00 X   2      43.815  92.175  74.9040  0.00  0.00     0.000 HD
ATOM     30   O  A00 X   2      43.506  92.330  73.1970  0.00  0.00     0.000 OA
ATOM     31   S  A00 X   2      43.539  91.263  74.1340  0.00  0.00     0.000 S
ATOM     32   O  A00 X   2      44.178  90.071  73.6700  0.00  0.00     0.000 OA
ATOM     33   O  A00 X   2      42.310  90.943  74.7970  0.00  0.00     0.000 OA
ENDBRANCH 21 30
BRANCH 24 34
ATOM     34   C  A00 X   2      44.499  91.913  80.5440  0.00  0.00     0.000 C
ATOM     35   O  A00 X   2      46.487  88.973  81.3580  0.00  0.00     0.000 OA
ATOM     36   O  A00 X   2      45.026  90.571  80.5220  0.00  0.00     0.000 O
ATOM     37   O  A00 X   2      47.325  90.853  80.1940  0.00  0.00     0.000 OA
ATOM     38   S  A00 X   2      46.429  90.390  81.2090  0.00  0.00     0.000 S
ATOM     39   O  A00 X   2      46.377  91.127  82.4350  0.00  0.00     0.000 OA
ENDBRANCH 24 34
BRANCH 20 40
ATOM     40  O4  A00 X   3      45.704  94.011  77.3340  0.00  0.00     0.000 O
BRANCH 40 44
ATOM     41  C1  A00 X   3      46.963  96.273  79.8690  0.00  0.00     0.000 C
ATOM     42  C2  A00 X   3      46.445  96.707  78.4810  0.00  0.00     0.000 C
ATOM     43  C3  A00 X   3      47.121  95.885  77.3530  0.00  0.00     0.000 C
ATOM     44  C4  A00 X   3      47.083  94.376  77.5600  0.00  0.00     0.000 C
ATOM     45  C5  A00 X   3      47.623  94.019  78.9730  0.00  0.00     0.000 C
ATOM     46  O5  A00 X   3      46.965  94.825  80.0030  0.00  0.00     0.000 O
ATOM     47   O  A00 X   3      46.782  96.261  76.0200  0.00  0.00     0.000 O
ATOM     49  HD  A00 X   3      46.797  95.404  75.8950  0.00  0.00     0.000 HD
BRANCH 42 49
ATOM     49   O  A00 X   3      45.012  96.518  78.4860  0.00  0.00     0.000 O
ATOM     50   O  A00 X   3      43.226  96.775  76.9140  0.00  0.00     0.000 OA
ATOM     51   O  A00 X   3      44.920  98.422  76.9940  0.00  0.00     0.000 OA
ATOM     52   O  A00 X   3      43.445  98.232  78.8310  0.00  0.00     0.000 OA
ATOM     53   S  A00 X   3      44.082  97.538  77.7660  0.00  0.00     0.000 S
ENDBRANCH 42 49
BRANCH 45 54
ATOM     54   C  A00 X   3      49.153  94.096  79.0320  0.00  0.00     0.000 C
ATOM     55   O  A00 X   3      49.757  93.685  80.0020  0.00  0.00     0.000 OA
ATOM     56   O  A00 X   3      49.791  94.574  78.1060  0.00  0.00     0.000 OA
ENDBRANCH 45 54
BRANCH 41 57
ATOM     57  O4  A00 X   4      48.229  96.894  80.1840  0.00  0.00     0.000 O
BRANCH 57 61
ATOM     58  C1  A00 X   4      49.994  98.255  83.8820  0.00  0.00     0.000 C
ATOM     59  C2  A00 X   4      49.647  96.753  83.7350  0.00  0.00     0.000 C
ATOM     60  C3  A00 X   4      49.368  96.325  82.2800  0.00  0.00     0.000 C
ATOM     61  C4  A00 X   4      48.393  97.293  81.5750  0.00  0.00     0.000 C
ATOM     62  C5  A00 X   4      49.039  98.698  81.6570  0.00  0.00     0.000 C
ATOM     63  O5  A00 X   4      49.156  99.089  83.0490  0.00  0.00     0.000 O
BRANCH 59 66
ATOM     64   N  A00 X   4      48.411  96.455  84.4820  0.00  0.00     0.000 N
ATOM     66  HD  A00 X   4      47.842  97.100  84.5870  0.00  0.00     0.000 HD
ATOM     66   O  A00 X   4      49.767  96.296  86.4650  0.00  0.00     0.000 OA
ATOM     67   S  A00 X   4      48.543  95.789  85.9300  0.00  0.00     0.000 S
ATOM     68   O  A00 X   4      47.347  96.279  86.5500  0.00  0.00     0.000 OA
ATOM     69   O  A00 X   4      48.493  94.399  85.5740  0.00  0.00     0.000 OA
ENDBRANCH 59 66
BRANCH 62 70
ATOM     70   C  A00 X   4      48.255  99.799  80.9020  0.00  0.00     0.000 C
ATOM     71   O  A00 X   4      45.040 101.249  81.7180  0.00  0.00     0.000 OA
ATOM     72   O  A00 X   4      45.861 100.381  79.6890  0.00  0.00     0.000 OA
ATOM     73   O  A00 X   4      47.153 100.238  81.7120  0.00  0.00     0.000 O
ATOM     74   O  A00 X   4      45.194  98.856  81.4690  0.00  0.00     0.000 OA
ATOM     75   S  A00 X   4      45.710 100.137  81.1060  0.00  0.00     0.000 S
ENDBRANCH 62 70
ENDBRANCH 57 61
ENDBRANCH 41 57
ENDBRANCH 40 44
ENDBRANCH 20 40
ENDBRANCH 19 23
ENDBRANCH 1 19
TORSDOF 14
ENDMDL
MODEL 59
REMARK VINA RESULT:      -0.4    186.678    191.162
ROOT
ATOM      1  C1  A00 X   1     207.485 179.474 189.9140  0.00  0.00     0.000 C
ATOM      2  C2  A00 X   1     207.331 180.893 190.5230  0.00  0.00     0.000 C
ATOM      3  C3  A00 X   1     208.660 181.645 190.8610  0.00  0.00     0.000 C
ATOM      4  C4  A00 X   1     209.936 180.764 190.8950  0.00  0.00     0.000 C
ATOM      5  C5  A00 X   1     209.612 179.289 191.1340  0.00  0.00     0.000 C
ATOM      6  O5  A00 X   1     208.813 178.900 189.9940  0.00  0.00     0.000 O
ATOM      7   O  A00 X   1     208.538 182.232 192.1540  0.00  0.00     0.000 O
ATOM      9  HD  A00 X   1     209.336 181.899 192.0990  0.00  0.00     0.000 HD
ATOM      9   O  A00 X   1     210.699 180.903 189.6970  0.00  0.00     0.000 O
ATOM     11  HD  A00 X   1     211.496 180.571 189.6420  0.00  0.00     0.000 HD
ENDROOT
BRANCH 2 11
ATOM     11   O  A00 X   1     206.565 181.687 189.5960  0.00  0.00     0.000 O
ATOM     12   O  A00 X   1     205.903 183.941 190.0980  0.00  0.00     0.000 OA
ATOM     13   O  A00 X   1     205.034 182.115 191.4500  0.00  0.00     0.000 OA
ATOM     14   O  A00 X   1     204.367 182.356 189.1800  0.00  0.00     0.000 OA
ATOM     15   S  A00 X   1     205.407 182.589 190.1460  0.00  0.00     0.000 S
ENDBRANCH 2 11
BRANCH 5 16
ATOM     16   C  A00 X   1     208.951 178.981 192.4810  0.00  0.00     0.000 C
ATOM     17   O  A00 X   1     208.486 177.874 192.6600  0.00  0.00     0.000 OA
ATOM     18   O  A00 X   1     208.881 179.800 193.3750  0.00  0.00     0.000 OA
ENDBRANCH 5 16
BRANCH 1 19
ATOM     19  O4  A00 X   2     206.479 178.547 190.3890  0.00  0.00     0.000 O
BRANCH 19 23
ATOM     20  C1  A00 X   2     206.087 176.564 186.6100  0.00  0.00     0.000 C
ATOM     21  C2  A00 X   2     205.039 177.648 186.9600  0.00  0.00     0.000 C
ATOM     22  C3  A00 X   2     205.544 178.550 188.1060  0.00  0.00     0.000 C
ATOM     23  C4  A00 X   2     205.956 177.698 189.3270  0.00  0.00     0.000 C
ATOM     24  C5  A00 X   2     206.988 176.643 188.8430  0.00  0.00     0.000 C
ATOM     25  O5  A00 X   2     206.369 175.817 187.8230  0.00  0.00     0.000 O
ATOM     26   O  A00 X   2     204.569 179.579 188.3460  0.00  0.00     0.000 O
ATOM     28  HD  A00 X   2     203.913 179.017 188.3950  0.00  0.00     0.000 HD
BRANCH 21 30
ATOM     28   N  A00 X   2     204.034 176.855 186.2460  0.00  0.00     0.000 N
ATOM     30  HD  A00 X   2     203.701 177.648 186.3490  0.00  0.00     0.000 HD
ATOM     30   O  A00 X   2     202.479 178.324 185.3080  0.00  0.00     0.000 OA
ATOM     31   S  A00 X   2     202.523 177.314 186.3050  0.00  0.00     0.000 S
ATOM     32   O  A00 X   2     201.794 176.124 185.9910  0.00  0.00     0.000 OA
ATOM     33   O  A00 X   2     202.256 177.720 187.6530  0.00  0.00     0.000 OA
ENDBRANCH 21 30
BRANCH 24 34
ATOM     34   C  A00 X   2     207.733 175.812 189.9140  0.00  0.00     0.000 C
ATOM     35   O  A00 X   2     206.076 173.701 192.3750  0.00  0.00     0.000 OA
ATOM     36   O  A00 X   2     206.834 175.370 190.9510  0.00  0.00     0.000 O
ATOM     37   O  A00 X   2     205.770 173.497 190.0390  0.00  0.00     0.000 OA
ATOM     38   S  A00 X   2     206.687 173.810 191.0910  0.00  0.00     0.000 S
ATOM     39   O  A00 X   2     208.010 173.269 191.0010  0.00  0.00     0.000 OA
ENDBRANCH 24 34
BRANCH 20 40
ATOM     40  O4  A00 X   3     207.262 177.278 186.2010  0.00  0.00     0.000 O
BRANCH 40 44
ATOM     41  C1  A00 X   3     210.864 177.596 186.4290  0.00  0.00     0.000 C
ATOM     42  C2  A00 X   3     209.946 178.542 185.6250  0.00  0.00     0.000 C
ATOM     43  C3  A00 X   3     209.003 177.740 184.6920  0.00  0.00     0.000 C
ATOM     44  C4  A00 X   3     208.243 176.611 185.3780  0.00  0.00     0.000 C
ATOM     45  C5  A00 X   3     209.233 175.702 186.1600  0.00  0.00     0.000 C
ATOM     46  O5  A00 X   3     210.109 176.501 187.0190  0.00  0.00     0.000 O
ATOM     47   O  A00 X   3     208.167 178.515 183.8350  0.00  0.00     0.000 O
ATOM     49  HD  A00 X   3     207.588 177.901 184.0310  0.00  0.00     0.000 HD
BRANCH 42 49
ATOM     49   O  A00 X   3     209.200 179.324 186.5830  0.00  0.00     0.000 O
ATOM     50   O  A00 X   3     207.486 180.992 186.4990  0.00  0.00     0.000 OA
ATOM     51   O  A00 X   3     209.256 181.096 184.9360  0.00  0.00     0.000 OA
ATOM     52   O  A00 X   3     209.735 181.523 187.2110  0.00  0.00     0.000 OA
ATOM     53   S  A00 X   3     208.891 180.824 186.3040  0.00  0.00     0.000 S
ENDBRANCH 42 49
BRANCH 45 54
ATOM     54   C  A00 X   3     210.000 174.761 185.2240  0.00  0.00     0.000 C
ATOM     55   O  A00 X   3     209.952 174.911 184.0200  0.00  0.00     0.000 OA
ATOM     56   O  A00 X   3     210.672 173.845 185.6720  0.00  0.00     0.000 OA
ENDBRANCH 45 54
BRANCH 41 57
ATOM     57  O4  A00 X   4     212.005 177.170 185.6510  0.00  0.00     0.000 O
BRANCH 57 61
ATOM     58  C1  A00 X   4     216.092 176.251 186.6940  0.00  0.00     0.000 C
ATOM     59  C2  A00 X   4     214.958 175.405 187.3260  0.00  0.00     0.000 C
ATOM     60  C3  A00 X   4     213.597 175.578 186.6200  0.00  0.00     0.000 C
ATOM     61  C4  A00 X   4     213.254 177.065 186.3920  0.00  0.00     0.000 C
ATOM     62  C5  A00 X   4     214.420 177.660 185.5650  0.00  0.00     0.000 C
ATOM     63  O5  A00 X   4     215.645 177.578 186.3380  0.00  0.00     0.000 O
BRANCH 59 66
ATOM     64   N  A00 X   4     214.727 175.814 188.7230  0.00  0.00     0.000 N
ATOM     66  HD  A00 X   4     214.912 176.633 188.9360  0.00  0.00     0.000 HD
ATOM     66   O  A00 X   4     216.594 174.421 189.3340  0.00  0.00     0.000 OA
ATOM     67   S  A00 X   4     215.379 174.933 189.8880  0.00  0.00     0.000 S
ATOM     68   O  A00 X   4     215.538 175.929 190.9070  0.00  0.00     0.000 OA
ATOM     69   O  A00 X   4     214.311 174.006 190.1320  0.00  0.00     0.000 OA
ENDBRANCH 59 66
BRANCH 62 70
ATOM     70   C  A00 X   4     214.206 179.132 185.1370  0.00  0.00     0.000 C
ATOM     71   O  A00 X   4     214.189 182.106 187.2010  0.00  0.00     0.000 OA
ATOM     72   O  A00 X   4     212.665 181.364 185.5670  0.00  0.00     0.000 OA
ATOM     73   O  A00 X   4     214.527 179.997 186.2380  0.00  0.00     0.000 O
ATOM     74   O  A00 X   4     212.685 180.306 187.7620  0.00  0.00     0.000 OA
ATOM     75   S  A00 X   4     213.418 180.985 186.7420  0.00  0.00     0.000 S
ENDBRANCH 62 70
ENDBRANCH 57 61
ENDBRANCH 41 57
ENDBRANCH 40 44
ENDBRANCH 20 40
ENDBRANCH 19 23
ENDBRANCH 1 19
TORSDOF 14
ENDMDL
MODEL 60
REMARK VINA RESULT:      -0.4    112.978    117.663
ROOT
ATOM      1  C1  A00 X   1      99.123 121.890 129.2480  0.00  0.00     0.000 C
ATOM      2  C2  A00 X   1      98.917 123.198 130.0560  0.00  0.00     0.000 C
ATOM      3  C3  A00 X   1      97.697 124.082 129.6350  0.00  0.00     0.000 C
ATOM      4  C4  A00 X   1      97.074 123.747 128.2550  0.00  0.00     0.000 C
ATOM      5  C5  A00 X   1      98.056 123.017 127.3400  0.00  0.00     0.000 C
ATOM      6  O5  A00 X   1      98.349 121.780 128.0270  0.00  0.00     0.000 O
ATOM      7   O  A00 X   1      98.119 125.442 129.5680  0.00  0.00     0.000 O
ATOM      9  HD  A00 X   1      97.603 125.302 128.8870  0.00  0.00     0.000 HD
ATOM      9   O  A00 X   1      95.881 122.976 128.3950  0.00  0.00     0.000 O
ATOM     11  HD  A00 X   1      95.365 122.835 127.7140  0.00  0.00     0.000 HD
ENDROOT
BRANCH 2 11
ATOM     11   O  A00 X   1      98.778 122.838 131.4450  0.00  0.00     0.000 O
ATOM     12   O  A00 X   1      98.203 124.456 133.1240  0.00  0.00     0.000 OA
ATOM     13   O  A00 X   1     100.308 124.681 131.9250  0.00  0.00     0.000 OA
ATOM     14   O  A00 X   1      99.975 122.884 133.4490  0.00  0.00     0.000 OA
ATOM     15   S  A00 X   1      99.348 123.805 132.5390  0.00  0.00     0.000 S
ENDBRANCH 2 11
BRANCH 5 16
ATOM     16   C  A00 X   1      99.306 123.818 126.9610  0.00  0.00     0.000 C
ATOM     17   O  A00 X   1     100.220 123.242 126.4080  0.00  0.00     0.000 OA
ATOM     18   O  A00 X   1      99.412 125.007 127.1870  0.00  0.00     0.000 OA
ENDBRANCH 5 16
BRANCH 1 19
ATOM     19  O4  A00 X   2     100.520 121.587 129.0160  0.00  0.00     0.000 O
BRANCH 19 23
ATOM     20  C1  A00 X   2     100.017 117.369 129.5800  0.00  0.00     0.000 C
ATOM     21  C2  A00 X   2     100.534 118.194 130.7830  0.00  0.00     0.000 C
ATOM     22  C3  A00 X   2     100.254 119.697 130.5790  0.00  0.00     0.000 C
ATOM     23  C4  A00 X   2     100.830 120.180 129.2290  0.00  0.00     0.000 C
ATOM     24  C5  A00 X   2     100.253 119.266 128.1130  0.00  0.00     0.000 C
ATOM     25  O5  A00 X   2     100.647 117.895 128.3810  0.00  0.00     0.000 O
ATOM     26   O  A00 X   2     100.689 120.410 131.7500  0.00  0.00     0.000 O
ATOM     28  HD  A00 X   2     101.469 120.035 131.7500  0.00  0.00     0.000 HD
BRANCH 21 30
ATOM     28   N  A00 X   2     101.355 117.042 131.1720  0.00  0.00     0.000 N
ATOM     30  HD  A00 X   2     101.323 117.571 131.8580  0.00  0.00     0.000 HD
ATOM     30   O  A00 X   2     101.541 117.036 133.5010  0.00  0.00     0.000 OA
ATOM     31   S  A00 X   2     102.377 117.209 132.3660  0.00  0.00     0.000 S
ATOM     32   O  A00 X   2     103.325 116.160 132.1500  0.00  0.00     0.000 OA
ATOM     33   O  A00 X   2     103.005 118.487 132.2110  0.00  0.00     0.000 OA
ENDBRANCH 21 30
BRANCH 24 34
ATOM     34   C  A00 X   2     100.491 119.679 126.6420  0.00  0.00     0.000 C
ATOM     35   O  A00 X   2     102.383 117.694 124.2460  0.00  0.00     0.000 OA
ATOM     36   O  A00 X   2     101.547 118.900 126.0450  0.00  0.00     0.000 O
ATOM     37   O  A00 X   2     100.521 116.882 125.4570  0.00  0.00     0.000 OA
ATOM     38   S  A00 X   2     101.117 118.016 124.8180  0.00  0.00     0.000 S
ATOM     39   O  A00 X   2     100.274 118.837 124.0020  0.00  0.00     0.000 OA
ENDBRANCH 24 34
BRANCH 20 40
ATOM     40  O4  A00 X   3      98.604 117.609 129.5240  0.00  0.00     0.000 O
BRANCH 40 44
ATOM     41  C1  A00 X   3      95.681 118.306 127.5000  0.00  0.00     0.000 C
ATOM     42  C2  A00 X   3      95.676 118.181 129.0390  0.00  0.00     0.000 C
ATOM     43  C3  A00 X   3      96.373 116.872 129.4920  0.00  0.00     0.000 C
ATOM     44  C4  A00 X   3      97.748 116.641 128.8780  0.00  0.00     0.000 C
ATOM     45  C5  A00 X   3      97.670 116.778 127.3310  0.00  0.00     0.000 C
ATOM     46  O5  A00 X   3      96.997 118.021 126.9490  0.00  0.00     0.000 O
ATOM     47   O  A00 X   3      96.351 116.608 130.8930  0.00  0.00     0.000 O
ATOM     49  HD  A00 X   3      97.157 116.330 130.7390  0.00  0.00     0.000 HD
BRANCH 42 49
ATOM     49   O  A00 X   3      96.352 119.346 129.5590  0.00  0.00     0.000 O
ATOM     50   O  A00 X   3      96.980 120.164 131.7200  0.00  0.00     0.000 OA
ATOM     51   O  A00 X   3      94.851 119.171 131.4500  0.00  0.00     0.000 OA
ATOM     52   O  A00 X   3      95.266 121.250 130.4030  0.00  0.00     0.000 OA
ATOM     53   S  A00 X   3      95.845 120.034 130.8610  0.00  0.00     0.000 S
ENDBRANCH 42 49
BRANCH 45 54
ATOM     54   C  A00 X   3      97.053 115.533 126.6820  0.00  0.00     0.000 C
ATOM     55   O  A00 X   3      97.005 115.425 125.4740  0.00  0.00     0.000 OA
ATOM     56   O  A00 X   3      96.597 114.631 127.3680  0.00  0.00     0.000 OA
ENDBRANCH 45 54
BRANCH 41 57
ATOM     57  O4  A00 X   4      94.615 117.537 126.8990  0.00  0.00     0.000 O
BRANCH 57 61
ATOM     58  C1  A00 X   4      92.156 118.153 123.4040  0.00  0.00     0.000 C
ATOM     59  C2  A00 X   4      93.687 118.003 123.2160  0.00  0.00     0.000 C
ATOM     60  C3  A00 X   4      94.405 117.437 124.4580  0.00  0.00     0.000 C
ATOM     61  C4  A00 X   4      93.974 118.162 125.7500  0.00  0.00     0.000 C
ATOM     62  C5  A00 X   4      92.435 118.007 125.8450  0.00  0.00     0.000 C
ATOM     63  O5  A00 X   4      91.818 118.669 124.7110  0.00  0.00     0.000 O
BRANCH 59 66
ATOM     64   N  A00 X   4      94.457 119.226 122.9300  0.00  0.00     0.000 N
ATOM     66  HD  A00 X   4      94.177 119.966 123.2810  0.00  0.00     0.000 HD
ATOM     66   O  A00 X   4      93.641 119.091 120.6690  0.00  0.00     0.000 OA
ATOM     67   S  A00 X   4      94.762 119.589 121.4020  0.00  0.00     0.000 S
ATOM     68   O  A00 X   4      94.857 121.017 121.4900  0.00  0.00     0.000 OA
ATOM     69   O  A00 X   4      96.023 118.925 121.2310  0.00  0.00     0.000 OA
ENDBRANCH 59 66
BRANCH 62 70
ATOM     70   C  A00 X   4      91.821 118.580 127.1440  0.00  0.00     0.000 C
ATOM     71   O  A00 X   4      91.523 122.039 128.1690  0.00  0.00     0.000 OA
ATOM     72   O  A00 X   4      92.333 120.159 129.3320  0.00  0.00     0.000 OA
ATOM     73   O  A00 X   4      91.691 120.006 127.0190  0.00  0.00     0.000 O
ATOM     74   O  A00 X   4      93.707 121.190 127.6030  0.00  0.00     0.000 OA
ATOM     75   S  A00 X   4      92.397 120.903 128.0930  0.00  0.00     0.000 S
ENDBRANCH 62 70
ENDBRANCH 57 61
ENDBRANCH 41 57
ENDBRANCH 40 44
ENDBRANCH 20 40
ENDBRANCH 19 23
ENDBRANCH 1 19
TORSDOF 14
ENDMDL
MODEL 61
REMARK VINA RESULT:      -0.4    211.271    215.301
ROOT
ATOM      1  C1  A00 X   1      11.813 117.849 199.3930  0.00  0.00     0.000 C
ATOM      2  C2  A00 X   1      11.899 117.440 197.8990  0.00  0.00     0.000 C
ATOM      3  C3  A00 X   1      12.293 118.576 196.8970  0.00  0.00     0.000 C
ATOM      4  C4  A00 X   1      12.189 120.020 197.4510  0.00  0.00     0.000 C
ATOM      5  C5  A00 X   1      11.232 120.116 198.6390  0.00  0.00     0.000 C
ATOM      6  O5  A00 X   1      11.822 119.274 199.6540  0.00  0.00     0.000 O
ATOM      7   O  A00 X   1      11.425 118.511 195.7680  0.00  0.00     0.000 O
ATOM      9  HD  A00 X   1      11.525 119.348 195.9660  0.00  0.00     0.000 HD
ATOM      9   O  A00 X   1      13.470 120.531 197.8210  0.00  0.00     0.000 O
ATOM     11  HD  A00 X   1      13.569 121.368 198.0180  0.00  0.00     0.000 HD
ENDROOT
BRANCH 2 11
ATOM     11   O  A00 X   1      12.855 116.368 197.7920  0.00  0.00     0.000 O
ATOM     12   O  A00 X   1      13.293 115.259 195.7070  0.00  0.00     0.000 OA
ATOM     13   O  A00 X   1      11.082 115.088 196.7050  0.00  0.00     0.000 OA
ATOM     14   O  A00 X   1      12.951 114.036 197.7310  0.00  0.00     0.000 OA
ATOM     15   S  A00 X   1      12.504 115.124 196.9050  0.00  0.00     0.000 S
ENDBRANCH 2 11
BRANCH 5 16
ATOM     16   C  A00 X   1       9.773 119.767 198.3250  0.00  0.00     0.000 C
ATOM     17   O  A00 X   1       8.998 119.629 199.2480  0.00  0.00     0.000 OA
ATOM     18   O  A00 X   1       9.365 119.632 197.1890  0.00  0.00     0.000 OA
ENDBRANCH 5 16
BRANCH 1 19
ATOM     19  O4  A00 X   2      10.728 117.191 200.0930  0.00  0.00     0.000 O
BRANCH 19 23
ATOM     20  C1  A00 X   2      12.938 116.753 203.7380  0.00  0.00     0.000 C
ATOM     21  C2  A00 X   2      12.876 115.532 202.7890  0.00  0.00     0.000 C
ATOM     22  C3  A00 X   2      12.441 115.959 201.3720  0.00  0.00     0.000 C
ATOM     23  C4  A00 X   2      11.111 116.745 201.4260  0.00  0.00     0.000 C
ATOM     24  C5  A00 X   2      11.298 117.925 202.4190  0.00  0.00     0.000 C
ATOM     25  O5  A00 X   2      11.632 117.388 203.7250  0.00  0.00     0.000 O
ATOM     26   O  A00 X   2      12.465 114.805 200.5140  0.00  0.00     0.000 O
ATOM     28  HD  A00 X   2      12.000 114.324 201.0650  0.00  0.00     0.000 HD
BRANCH 21 30
ATOM     28   N  A00 X   2      12.869 114.662 203.9700  0.00  0.00     0.000 N
ATOM     30  HD  A00 X   2      13.062 114.161 203.2900  0.00  0.00     0.000 HD
ATOM     30   O  A00 X   2      13.953 112.669 203.4120  0.00  0.00     0.000 OA
ATOM     31   S  A00 X   2      12.651 113.110 203.7670  0.00  0.00     0.000 S
ATOM     32   O  A00 X   2      12.190 112.663 205.0450  0.00  0.00     0.000 OA
ATOM     33   O  A00 X   2      11.621 112.952 202.7840  0.00  0.00     0.000 OA
ENDBRANCH 21 30
BRANCH 24 34
ATOM     34   C  A00 X   2      10.190 119.002 202.4820  0.00  0.00     0.000 C
ATOM     35   O  A00 X   2       8.220 119.731 205.4570  0.00  0.00     0.000 OA
ATOM     36   O  A00 X   2       9.357 118.827 203.6460  0.00  0.00     0.000 O
ATOM     37   O  A00 X   2      10.584 119.790 205.3890  0.00  0.00     0.000 OA
ATOM     38   S  A00 X   2       9.371 120.024 204.6670  0.00  0.00     0.000 S
ATOM     39   O  A00 X   2       9.284 121.222 203.8870  0.00  0.00     0.000 OA
ENDBRANCH 24 34
BRANCH 20 40
ATOM     40  O4  A00 X   3      13.909 117.640 203.1650  0.00  0.00     0.000 O
BRANCH 40 44
ATOM     41  C1  A00 X   3      14.885 121.021 202.3020  0.00  0.00     0.000 C
ATOM     42  C2  A00 X   3      15.728 119.760 202.0110  0.00  0.00     0.000 C
ATOM     43  C3  A00 X   3      15.891 118.895 203.2880  0.00  0.00     0.000 C
ATOM     44  C4  A00 X   3      14.589 118.588 204.0160  0.00  0.00     0.000 C
ATOM     45  C5  A00 X   3      13.802 119.903 204.2760  0.00  0.00     0.000 C
ATOM     46  O5  A00 X   3      13.681 120.692 203.0480  0.00  0.00     0.000 O
ATOM     47   O  A00 X   3      16.727 117.746 203.1590  0.00  0.00     0.000 O
ATOM     49  HD  A00 X   3      16.121 117.389 203.6640  0.00  0.00     0.000 HD
BRANCH 42 49
ATOM     49   O  A00 X   3      15.052 119.032 200.9630  0.00  0.00     0.000 O
ATOM     50   O  A00 X   3      15.385 116.969 199.7940  0.00  0.00     0.000 OA
ATOM     51   O  A00 X   3      17.257 118.341 200.2450  0.00  0.00     0.000 OA
ATOM     52   O  A00 X   3      15.648 119.106 198.6930  0.00  0.00     0.000 OA
ATOM     53   S  A00 X   3      15.871 118.312 199.8520  0.00  0.00     0.000 S
ENDBRANCH 42 49
BRANCH 45 54
ATOM     54   C  A00 X   3      14.394 120.697 205.4470  0.00  0.00     0.000 C
ATOM     55   O  A00 X   3      15.445 120.360 205.9540  0.00  0.00     0.000 OA
ATOM     56   O  A00 X   3      13.821 121.680 205.8900  0.00  0.00     0.000 OA
ENDBRANCH 45 54
BRANCH 41 57
ATOM     57  O4  A00 X   4      15.680 122.068 202.9020  0.00  0.00     0.000 O
BRANCH 57 61
ATOM     58  C1  A00 X   4      15.547 126.375 202.6440  0.00  0.00     0.000 C
ATOM     59  C2  A00 X   4      14.322 125.630 203.2290  0.00  0.00     0.000 C
ATOM     60  C3  A00 X   4      14.616 124.163 203.6030  0.00  0.00     0.000 C
ATOM     61  C4  A00 X   4      15.352 123.419 202.4680  0.00  0.00     0.000 C
ATOM     62  C5  A00 X   4      16.648 124.221 202.1900  0.00  0.00     0.000 C
ATOM     63  O5  A00 X   4      16.295 125.549 201.7240  0.00  0.00     0.000 O
BRANCH 59 66
ATOM     64   N  A00 X   4      13.234 125.569 202.2360  0.00  0.00     0.000 N
ATOM     66  HD  A00 X   4      13.457 125.579 201.3990  0.00  0.00     0.000 HD
ATOM     66   O  A00 X   4      12.639 127.806 202.8990  0.00  0.00     0.000 OA
ATOM     67   S  A00 X   4      12.041 126.628 202.3530  0.00  0.00     0.000 S
ATOM     68   O  A00 X   4      11.641 126.719 200.9790  0.00  0.00     0.000 OA
ATOM     69   O  A00 X   4      11.131 125.893 203.1840  0.00  0.00     0.000 OA
ENDBRANCH 59 66
BRANCH 62 70
ATOM     70   C  A00 X   4      17.585 123.566 201.1470  0.00  0.00     0.000 C
ATOM     71   O  A00 X   4      17.083 123.181 197.5820  0.00  0.00     0.000 OA
ATOM     72   O  A00 X   4      17.740 121.618 199.2170  0.00  0.00     0.000 OA
ATOM     73   O  A00 X   4      17.101 123.856 199.8260  0.00  0.00     0.000 O
ATOM     74   O  A00 X   4      15.407 122.312 199.0830  0.00  0.00     0.000 OA
ATOM     75   S  A00 X   4      16.780 122.647 198.8800  0.00  0.00     0.000 S
ENDBRANCH 62 70
ENDBRANCH 57 61
ENDBRANCH 41 57
ENDBRANCH 40 44
ENDBRANCH 20 40
ENDBRANCH 19 23
ENDBRANCH 1 19
TORSDOF 14
ENDMDL
MODEL 62
REMARK VINA RESULT:      -0.4    168.887    173.847
ROOT
ATOM      1  C1  A00 X   1     177.005 185.741 162.6460  0.00  0.00     0.000 C
ATOM      2  C2  A00 X   1     178.049 185.880 161.5050  0.00  0.00     0.000 C
ATOM      3  C3  A00 X   1     179.133 184.755 161.4250  0.00  0.00     0.000 C
ATOM      4  C4  A00 X   1     179.262 183.859 162.6840  0.00  0.00     0.000 C
ATOM      5  C5  A00 X   1     178.723 184.547 163.9380  0.00  0.00     0.000 C
ATOM      6  O5  A00 X   1     177.320 184.761 163.6660  0.00  0.00     0.000 O
ATOM      7   O  A00 X   1     180.408 185.361 161.2270  0.00  0.00     0.000 O
ATOM      9  HD  A00 X   1     180.516 184.721 161.7990  0.00  0.00     0.000 HD
ATOM      9   O  A00 X   1     178.605 182.605 162.5020  0.00  0.00     0.000 O
ATOM     11  HD  A00 X   1     178.713 181.964 163.0740  0.00  0.00     0.000 HD
ENDROOT
BRANCH 2 11
ATOM     11   O  A00 X   1     177.330 185.929 160.2570  0.00  0.00     0.000 O
ATOM     12   O  A00 X   1     178.448 186.273 158.1600  0.00  0.00     0.000 OA
ATOM     13   O  A00 X   1     178.493 188.035 159.8370  0.00  0.00     0.000 OA
ATOM     14   O  A00 X   1     176.461 187.471 158.7350  0.00  0.00     0.000 OA
ATOM     15   S  A00 X   1     177.742 186.997 159.1860  0.00  0.00     0.000 S
ENDBRANCH 2 11
BRANCH 5 16
ATOM     16   C  A00 X   1     179.469 185.820 164.3500  0.00  0.00     0.000 C
ATOM     17   O  A00 X   1     178.981 186.528 165.2070  0.00  0.00     0.000 OA
ATOM     18   O  A00 X   1     180.532 186.142 163.8570  0.00  0.00     0.000 OA
ENDBRANCH 5 16
BRANCH 1 19
ATOM     19  O4  A00 X   2     176.642 187.015 163.2310  0.00  0.00     0.000 O
BRANCH 19 23
ATOM     20  C1  A00 X   2     172.530 185.936 163.7760  0.00  0.00     0.000 C
ATOM     21  C2  A00 X   2     172.889 186.777 162.5260  0.00  0.00     0.000 C
ATOM     22  C3  A00 X   2     174.403 186.714 162.2380  0.00  0.00     0.000 C
ATOM     23  C4  A00 X   2     175.212 187.123 163.4890  0.00  0.00     0.000 C
ATOM     24  C5  A00 X   2     174.749 186.225 164.6690  0.00  0.00     0.000 C
ATOM     25  O5  A00 X   2     173.329 186.431 164.8830  0.00  0.00     0.000 O
ATOM     26   O  A00 X   2     174.675 187.451 161.0340  0.00  0.00     0.000 O
ATOM     28  HD  A00 X   2     174.238 188.148 161.3020  0.00  0.00     0.000 HD
BRANCH 21 30
ATOM     28   N  A00 X   2     171.594 187.452 162.6550  0.00  0.00     0.000 N
ATOM     30  HD  A00 X   2     171.888 187.624 161.8590  0.00  0.00     0.000 HD
ATOM     30   O  A00 X   2     170.857 188.027 160.5140  0.00  0.00     0.000 OA
ATOM     31   S  A00 X   2     171.278 188.675 161.7050  0.00  0.00     0.000 S
ATOM     32   O  A00 X   2     170.251 189.388 162.4000  0.00  0.00     0.000 OA
ATOM     33   O  A00 X   2     172.469 189.468 161.6270  0.00  0.00     0.000 OA
ENDBRANCH 21 30
BRANCH 24 34
ATOM     34   C  A00 X   2     175.565 186.275 165.9830  0.00  0.00     0.000 C
ATOM     35   O  A00 X   2     176.116 189.303 167.9280  0.00  0.00     0.000 OA
ATOM     36   O  A00 X   2     175.910 187.630 166.3320  0.00  0.00     0.000 O
ATOM     37   O  A00 X   2     173.978 188.483 167.3370  0.00  0.00     0.000 OA
ATOM     38   S  A00 X   2     175.321 188.142 167.6970  0.00  0.00     0.000 S
ATOM     39   O  A00 X   2     175.506 187.082 168.6410  0.00  0.00     0.000 OA
ENDBRANCH 24 34
BRANCH 20 40
ATOM     40  O4  A00 X   3     172.923 184.591 163.4640  0.00  0.00     0.000 O
BRANCH 40 44
ATOM     41  C1  A00 X   3     174.521 181.528 164.5530  0.00  0.00     0.000 C
ATOM     42  C2  A00 X   3     173.925 181.759 163.1470  0.00  0.00     0.000 C
ATOM     43  C3  A00 X   3     172.474 182.296 163.2410  0.00  0.00     0.000 C
ATOM     44  C4  A00 X   3     172.301 183.494 164.1660  0.00  0.00     0.000 C
ATOM     45  C5  A00 X   3     172.919 183.184 165.5590  0.00  0.00     0.000 C
ATOM     46  O5  A00 X   3     174.284 182.670 165.4220  0.00  0.00     0.000 O
ATOM     47   O  A00 X   3     171.791 182.465 162.0000  0.00  0.00     0.000 O
ATOM     49  HD  A00 X   3     171.490 183.177 162.3910  0.00  0.00     0.000 HD
BRANCH 42 49
ATOM     49   O  A00 X   3     174.792 182.694 162.4680  0.00  0.00     0.000 O
ATOM     50   O  A00 X   3     174.822 183.801 160.3460  0.00  0.00     0.000 OA
ATOM     51   O  A00 X   3     174.190 181.525 160.4360  0.00  0.00     0.000 OA
ATOM     52   O  A00 X   3     176.437 182.090 160.9050  0.00  0.00     0.000 OA
ATOM     53   S  A00 X   3     175.086 182.532 160.9480  0.00  0.00     0.000 S
ENDBRANCH 42 49
BRANCH 45 54
ATOM     54   C  A00 X   3     172.012 182.271 166.3920  0.00  0.00     0.000 C
ATOM     55   O  A00 X   3     172.257 182.056 167.5620  0.00  0.00     0.000 OA
ATOM     56   O  A00 X   3     171.028 181.745 165.8960  0.00  0.00     0.000 OA
ENDBRANCH 45 54
BRANCH 41 57
ATOM     57  O4  A00 X   4     174.096 180.265 165.1120  0.00  0.00     0.000 O
BRANCH 57 61
ATOM     58  C1  A00 X   4     176.011 177.419 167.7340  0.00  0.00     0.000 C
ATOM     59  C2  A00 X   4     175.758 178.855 168.2560  0.00  0.00     0.000 C
ATOM     60  C3  A00 X   4     174.766 179.659 167.3910  0.00  0.00     0.000 C
ATOM     61  C4  A00 X   4     175.107 179.561 165.8890  0.00  0.00     0.000 C
ATOM     62  C5  A00 X   4     175.098 178.053 165.5370  0.00  0.00     0.000 C
ATOM     63  O5  A00 X   4     176.137 177.381 166.2940  0.00  0.00     0.000 O
BRANCH 59 66
ATOM     64   N  A00 X   4     177.017 179.622 168.2340  0.00  0.00     0.000 N
ATOM     66  HD  A00 X   4     177.613 179.395 167.6490  0.00  0.00     0.000 HD
ATOM     66   O  A00 X   4     177.569 178.586 170.3370  0.00  0.00     0.000 OA
ATOM     67   S  A00 X   4     177.829 179.784 169.6020  0.00  0.00     0.000 S
ATOM     68   O  A00 X   4     179.164 179.920 169.0960  0.00  0.00     0.000 OA
ATOM     69   O  A00 X   4     177.259 181.007 170.0920  0.00  0.00     0.000 OA
ENDBRANCH 59 66
BRANCH 62 70
ATOM     70   C  A00 X   4     175.312 177.753 164.0340  0.00  0.00     0.000 C
ATOM     71   O  A00 X   4     178.308 178.185 162.0470  0.00  0.00     0.000 OA
ATOM     72   O  A00 X   4     176.087 178.855 161.6410  0.00  0.00     0.000 OA
ATOM     73   O  A00 X   4     176.714 177.838 163.7280  0.00  0.00     0.000 O
ATOM     74   O  A00 X   4     177.440 180.085 163.2510  0.00  0.00     0.000 OA
ATOM     75   S  A00 X   4     177.161 178.841 162.6090  0.00  0.00     0.000 S
ENDBRANCH 62 70
ENDBRANCH 57 61
ENDBRANCH 41 57
ENDBRANCH 40 44
ENDBRANCH 20 40
ENDBRANCH 19 23
ENDBRANCH 1 19
TORSDOF 14
ENDMDL
MODEL 63
REMARK VINA RESULT:      -0.4     38.046     43.736
ROOT
ATOM      1  C1  A00 X   1     199.285  64.965  69.2130  0.00  0.00     0.000 C
ATOM      2  C2  A00 X   1     200.676  64.967  68.5260  0.00  0.00     0.000 C
ATOM      3  C3  A00 X   1     201.067  63.659  67.7610  0.00  0.00     0.000 C
ATOM      4  C4  A00 X   1     200.203  62.413  68.0840  0.00  0.00     0.000 C
ATOM      5  C5  A00 X   1     199.510  62.527  69.4410  0.00  0.00     0.000 C
ATOM      6  O5  A00 X   1     198.638  63.672  69.3120  0.00  0.00     0.000 O
ATOM      7   O  A00 X   1     202.411  63.318  68.0950  0.00  0.00     0.000 O
ATOM      9  HD  A00 X   1     201.955  62.582  68.0860  0.00  0.00     0.000 HD
ATOM      9   O  A00 X   1     199.233  62.172  67.0650  0.00  0.00     0.000 O
ATOM     11  HD  A00 X   1     198.778  61.436  67.0560  0.00  0.00     0.000 HD
ENDROOT
BRANCH 2 11
ATOM     11   O  A00 X   1     200.710  66.076  67.6060  0.00  0.00     0.000 O
ATOM     12   O  A00 X   1     202.691  66.643  66.3720  0.00  0.00     0.000 OA
ATOM     13   O  A00 X   1     202.710  66.816  68.7980  0.00  0.00     0.000 OA
ATOM     14   O  A00 X   1     201.392  68.306  67.4940  0.00  0.00     0.000 OA
ATOM     15   S  A00 X   1     201.979  66.996  67.5740  0.00  0.00     0.000 S
ENDBRANCH 2 11
BRANCH 5 16
ATOM     16   C  A00 X   1     200.453  62.606  70.6460  0.00  0.00     0.000 C
ATOM     17   O  A00 X   1     199.988  62.894  71.7300  0.00  0.00     0.000 OA
ATOM     18   O  A00 X   1     201.644  62.386  70.5570  0.00  0.00     0.000 OA
ENDBRANCH 5 16
BRANCH 1 19
ATOM     19  O4  A00 X   2     199.287  65.654  70.4870  0.00  0.00     0.000 O
BRANCH 19 23
ATOM     20  C1  A00 X   2     195.365  67.297  69.9470  0.00  0.00     0.000 C
ATOM     21  C2  A00 X   2     196.573  68.210  69.6250  0.00  0.00     0.000 C
ATOM     22  C3  A00 X   2     197.859  67.377  69.4460  0.00  0.00     0.000 C
ATOM     23  C4  A00 X   2     198.100  66.476  70.6790  0.00  0.00     0.000 C
ATOM     24  C5  A00 X   2     196.818  65.630  70.9060  0.00  0.00     0.000 C
ATOM     25  O5  A00 X   2     195.700  66.527  71.1330  0.00  0.00     0.000 O
ATOM     26   O  A00 X   2     198.934  68.260  69.0820  0.00  0.00     0.000 O
ATOM     28  HD  A00 X   2     198.771  68.808  69.7320  0.00  0.00     0.000 HD
BRANCH 21 30
ATOM     28   N  A00 X   2     195.782  69.348  70.1050  0.00  0.00     0.000 N
ATOM     30  HD  A00 X   2     196.452  69.676  69.6650  0.00  0.00     0.000 HD
ATOM     30   O  A00 X   2     196.436  71.244  68.9080  0.00  0.00     0.000 OA
ATOM     31   S  A00 X   2     196.486  70.757  70.2400  0.00  0.00     0.000 S
ATOM     32   O  A00 X   2     195.659  71.460  71.1720  0.00  0.00     0.000 OA
ATOM     33   O  A00 X   2     197.784  70.530  70.8010  0.00  0.00     0.000 OA
ENDBRANCH 21 30
BRANCH 24 34
ATOM     34   C  A00 X   2     196.881  64.480  71.9390  0.00  0.00     0.000 C
ATOM     35   O  A00 X   2     197.723  64.938  75.4520  0.00  0.00     0.000 OA
ATOM     36   O  A00 X   2     197.571  64.891  73.1360  0.00  0.00     0.000 O
ATOM     37   O  A00 X   2     195.969  66.083  74.3530  0.00  0.00     0.000 OA
ATOM     38   S  A00 X   2     196.710  64.862  74.4510  0.00  0.00     0.000 S
ATOM     39   O  A00 X   2     195.972  63.635  74.4260  0.00  0.00     0.000 OA
ENDBRANCH 24 34
BRANCH 20 40
ATOM     40  O4  A00 X   3     195.235  66.414  68.8230  0.00  0.00     0.000 O
BRANCH 40 44
ATOM     41  C1  A00 X   3     194.666  63.046  67.6180  0.00  0.00     0.000 C
ATOM     42  C2  A00 X   3     194.945  64.268  66.7170  0.00  0.00     0.000 C
ATOM     43  C3  A00 X   3     194.003  65.447  67.0730  0.00  0.00     0.000 C
ATOM     44  C4  A00 X   3     193.959  65.796  68.5550  0.00  0.00     0.000 C
ATOM     45  C5  A00 X   3     193.670  64.520  69.3940  0.00  0.00     0.000 C
ATOM     46  O5  A00 X   3     194.574  63.431  69.0180  0.00  0.00     0.000 O
ATOM     47   O  A00 X   3     194.112  66.603  66.2440  0.00  0.00     0.000 O
ATOM     49  HD  A00 X   3     194.005  67.015  66.9980  0.00  0.00     0.000 HD
BRANCH 42 49
ATOM     49   O  A00 X   3     196.332  64.625  66.9040  0.00  0.00     0.000 O
ATOM     50   O  A00 X   3     197.802  66.340  66.1130  0.00  0.00     0.000 OA
ATOM     51   O  A00 X   3     196.291  65.342  64.5930  0.00  0.00     0.000 OA
ATOM     52   O  A00 X   3     198.069  64.034  65.4390  0.00  0.00     0.000 OA
ATOM     53   S  A00 X   3     197.187  65.118  65.7010  0.00  0.00     0.000 S
ENDBRANCH 42 49
BRANCH 45 54
ATOM     54   C  A00 X   3     192.190  64.123  69.3330  0.00  0.00     0.000 C
ATOM     55   O  A00 X   3     191.439  64.653  68.5390  0.00  0.00     0.000 OA
ATOM     56   O  A00 X   3     191.739  63.270  70.0810  0.00  0.00     0.000 OA
ENDBRANCH 45 54
BRANCH 41 57
ATOM     57  O4  A00 X   4     193.537  62.279  67.1440  0.00  0.00     0.000 O
BRANCH 57 61
ATOM     58  C1  A00 X   4     192.622  58.060  67.1940  0.00  0.00     0.000 C
ATOM     59  C2  A00 X   4     192.812  58.793  68.5450  0.00  0.00     0.000 C
ATOM     60  C3  A00 X   4     192.774  60.330  68.4210  0.00  0.00     0.000 C
ATOM     61  C4  A00 X   4     193.673  60.835  67.2720  0.00  0.00     0.000 C
ATOM     62  C5  A00 X   4     193.171  60.133  65.9860  0.00  0.00     0.000 C
ATOM     63  O5  A00 X   4     193.351  58.701  66.1220  0.00  0.00     0.000 O
BRANCH 59 66
ATOM     64   N  A00 X   4     194.138  58.472  69.1050  0.00  0.00     0.000 N
ATOM     66  HD  A00 X   4     194.768  58.269  68.5470  0.00  0.00     0.000 HD
ATOM     66   O  A00 X   4     193.175  56.435  69.9540  0.00  0.00     0.000 OA
ATOM     67   S  A00 X   4     194.227  57.357  70.2470  0.00  0.00     0.000 S
ATOM     68   O  A00 X   4     195.557  56.867  70.0260  0.00  0.00     0.000 OA
ATOM     69   O  A00 X   4     194.091  58.179  71.4160  0.00  0.00     0.000 OA
ENDBRANCH 59 66
BRANCH 62 70
ATOM     70   C  A00 X   4     193.883  60.598  64.6930  0.00  0.00     0.000 C
ATOM     71   O  A00 X   4     197.296  59.990  63.6490  0.00  0.00     0.000 OA
ATOM     72   O  A00 X   4     196.049  61.986  63.7300  0.00  0.00     0.000 OA
ATOM     73   O  A00 X   4     195.147  59.924  64.5790  0.00  0.00     0.000 O
ATOM     74   O  A00 X   4     196.914  61.022  65.7950  0.00  0.00     0.000 OA
ATOM     75   S  A00 X   4     196.440  60.804  64.4660  0.00  0.00     0.000 S
ENDBRANCH 62 70
ENDBRANCH 57 61
ENDBRANCH 41 57
ENDBRANCH 40 44
ENDBRANCH 20 40
ENDBRANCH 19 23
ENDBRANCH 1 19
TORSDOF 14
ENDMDL
MODEL 64
REMARK VINA RESULT:      -0.4    182.903    188.878
ROOT
ATOM      1  C1  A00 X   1      24.352 156.197 140.2690  0.00  0.00     0.000 C
ATOM      2  C2  A00 X   1      24.401 157.401 141.2470  0.00  0.00     0.000 C
ATOM      3  C3  A00 X   1      25.729 157.576 142.0570  0.00  0.00     0.000 C
ATOM      4  C4  A00 X   1      26.673 156.346 142.0650  0.00  0.00     0.000 C
ATOM      5  C5  A00 X   1      25.930 155.045 141.7630  0.00  0.00     0.000 C
ATOM      6  O5  A00 X   1      25.411 155.220 140.4260  0.00  0.00     0.000 O
ATOM      7   O  A00 X   1      25.402 157.844 143.4180  0.00  0.00     0.000 O
ATOM      9  HD  A00 X   1      26.071 157.293 143.4200  0.00  0.00     0.000 HD
ATOM      9   O  A00 X   1      27.751 156.510 141.1440  0.00  0.00     0.000 O
ATOM     11  HD  A00 X   1      28.419 155.959 141.1450  0.00  0.00     0.000 HD
ENDROOT
BRANCH 2 11
ATOM     11   O  A00 X   1      24.157 158.597 140.4830  0.00  0.00     0.000 O
ATOM     12   O  A00 X   1      23.974 160.754 141.5220  0.00  0.00     0.000 OA
ATOM     13   O  A00 X   1      22.324 159.042 142.0350  0.00  0.00     0.000 OA
ATOM     14   O  A00 X   1      22.412 160.021 139.8690  0.00  0.00     0.000 OA
ATOM     15   S  A00 X   1      23.158 159.666 141.0450  0.00  0.00     0.000 S
ENDBRANCH 2 11
BRANCH 5 16
ATOM     16   C  A00 X   1      24.860 154.657 142.7900  0.00  0.00     0.000 C
ATOM     17   O  A00 X   1      24.094 153.756 142.5190  0.00  0.00     0.000 OA
ATOM     18   O  A00 X   1      24.756 155.214 143.8650  0.00  0.00     0.000 OA
ENDBRANCH 5 16
BRANCH 1 19
ATOM     19  O4  A00 X   2      23.051 155.563 140.2250  0.00  0.00     0.000 O
BRANCH 19 23
ATOM     20  C1  A00 X   2      23.242 154.780 136.0160  0.00  0.00     0.000 C
ATOM     21  C2  A00 X   2      22.444 156.024 136.4750  0.00  0.00     0.000 C
ATOM     22  C3  A00 X   2      22.819 156.414 137.9200  0.00  0.00     0.000 C
ATOM     23  C4  A00 X   2      22.649 155.207 138.8710  0.00  0.00     0.000 C
ATOM     24  C5  A00 X   2      23.478 154.027 138.2930  0.00  0.00     0.000 C
ATOM     25  O5  A00 X   2      22.981 153.713 136.9660  0.00  0.00     0.000 O
ATOM     26   O  A00 X   2      22.105 157.610 138.2750  0.00  0.00     0.000 O
ATOM     28  HD  A00 X   2      21.342 157.292 138.0170  0.00  0.00     0.000 HD
BRANCH 21 30
ATOM     28   N  A00 X   2      21.512 155.788 135.3680  0.00  0.00     0.000 N
ATOM     30  HD  A00 X   2      21.373 156.597 135.6460  0.00  0.00     0.000 HD
ATOM     30   O  A00 X   2      20.697 157.857 134.6510  0.00  0.00     0.000 OA
ATOM     31   S  A00 X   2      20.209 156.677 135.2720  0.00  0.00     0.000 S
ATOM     32   O  A00 X   2      19.323 155.894 134.4670  0.00  0.00     0.000 OA
ATOM     33   O  A00 X   2      19.688 156.810 136.6000  0.00  0.00     0.000 OA
ENDBRANCH 21 30
BRANCH 24 34
ATOM     34   C  A00 X   2      23.663 152.770 139.1740  0.00  0.00     0.000 C
ATOM     35   O  A00 X   2      20.915 150.775 140.4880  0.00  0.00     0.000 OA
ATOM     36   O  A00 X   2      22.432 152.404 139.8280  0.00  0.00     0.000 O
ATOM     37   O  A00 X   2      21.225 151.247 138.1920  0.00  0.00     0.000 OA
ATOM     38   S  A00 X   2      21.864 150.988 139.4450  0.00  0.00     0.000 S
ATOM     39   O  A00 X   2      22.980 150.090 139.4480  0.00  0.00     0.000 OA
ENDBRANCH 24 34
BRANCH 20 40
ATOM     40  O4  A00 X   3      24.625 155.158 136.0870  0.00  0.00     0.000 O
BRANCH 40 44
ATOM     41  C1  A00 X   3      28.005 154.269 137.0390  0.00  0.00     0.000 C
ATOM     42  C2  A00 X   3      27.590 155.626 136.4310  0.00  0.00     0.000 C
ATOM     43  C3  A00 X   3      26.758 155.423 135.1390  0.00  0.00     0.000 C
ATOM     44  C4  A00 X   3      25.593 154.452 135.2820  0.00  0.00     0.000 C
ATOM     45  C5  A00 X   3      26.089 153.112 135.8940  0.00  0.00     0.000 C
ATOM     46  O5  A00 X   3      26.879 153.351 137.1050  0.00  0.00     0.000 O
ATOM     47   O  A00 X   3      26.392 156.612 134.4410  0.00  0.00     0.000 O
ATOM     49  HD  A00 X   3      25.650 156.181 134.3240  0.00  0.00     0.000 HD
BRANCH 42 49
ATOM     49   O  A00 X   3      26.835 156.329 137.4410  0.00  0.00     0.000 O
ATOM     50   O  A00 X   3      25.678 158.419 137.5970  0.00  0.00     0.000 OA
ATOM     51   O  A00 X   3      27.771 158.353 136.4990  0.00  0.00     0.000 OA
ATOM     52   O  A00 X   3      27.713 158.002 138.8350  0.00  0.00     0.000 OA
ATOM     53   S  A00 X   3      26.996 157.868 137.6140  0.00  0.00     0.000 S
ENDBRANCH 42 49
BRANCH 45 54
ATOM     54   C  A00 X   3      26.821 152.251 134.8580  0.00  0.00     0.000 C
ATOM     55   O  A00 X   3      27.093 152.698 133.7630  0.00  0.00     0.000 OA
ATOM     56   O  A00 X   3      27.140 151.100 135.1140  0.00  0.00     0.000 OA
ENDBRANCH 45 54
BRANCH 41 57
ATOM     57  O4  A00 X   4      29.170 153.722 136.3810  0.00  0.00     0.000 O
BRANCH 57 61
ATOM     58  C1  A00 X   4      32.492 151.347 137.7820  0.00  0.00     0.000 C
ATOM     59  C2  A00 X   4      31.063 150.761 137.8920  0.00  0.00     0.000 C
ATOM     60  C3  A00 X   4      30.019 151.522 137.0500  0.00  0.00     0.000 C
ATOM     61  C4  A00 X   4      30.116 153.048 137.2590  0.00  0.00     0.000 C
ATOM     62  C5  A00 X   4      31.567 153.447 136.8900  0.00  0.00     0.000 C
ATOM     63  O5  A00 X   4      32.488 152.793 137.8010  0.00  0.00     0.000 O
BRANCH 59 66
ATOM     64   N  A00 X   4      30.580 150.845 139.2830  0.00  0.00     0.000 N
ATOM     66  HD  A00 X   4      30.896 151.482 139.7780  0.00  0.00     0.000 HD
ATOM     66   O  A00 X   4      31.825 148.833 139.7310  0.00  0.00     0.000 OA
ATOM     67   S  A00 X   4      30.670 149.536 140.1970  0.00  0.00     0.000 S
ATOM     68   O  A00 X   4      30.793 150.134 141.4940  0.00  0.00     0.000 OA
ATOM     69   O  A00 X   4      29.384 148.955 139.9350  0.00  0.00     0.000 OA
ENDBRANCH 59 66
BRANCH 62 70
ATOM     70   C  A00 X   4      31.834 154.971 136.9310  0.00  0.00     0.000 C
ATOM     71   O  A00 X   4      31.989 157.162 139.8090  0.00  0.00     0.000 OA
ATOM     72   O  A00 X   4      30.818 157.378 137.7780  0.00  0.00     0.000 OA
ATOM     73   O  A00 X   4      32.051 155.378 138.2920  0.00  0.00     0.000 O
ATOM     74   O  A00 X   4      30.004 155.834 139.4780  0.00  0.00     0.000 OA
ATOM     75   S  A00 X   4      31.120 156.494 138.8810  0.00  0.00     0.000 S
ENDBRANCH 62 70
ENDBRANCH 57 61
ENDBRANCH 41 57
ENDBRANCH 40 44
ENDBRANCH 20 40
ENDBRANCH 19 23
ENDBRANCH 1 19
TORSDOF 14
ENDMDL
MODEL 65
REMARK VINA RESULT:      -0.4    138.475    142.803
ROOT
ATOM      1  C1  A00 X   1     126.762 142.403 160.9170  0.00  0.00     0.000 C
ATOM      2  C2  A00 X   1     125.327 142.965 160.7390  0.00  0.00     0.000 C
ATOM      3  C3  A00 X   1     125.164 144.509 160.9330  0.00  0.00     0.000 C
ATOM      4  C4  A00 X   1     126.351 145.224 161.6280  0.00  0.00     0.000 C
ATOM      5  C5  A00 X   1     127.193 144.263 162.4670  0.00  0.00     0.000 C
ATOM      6  O5  A00 X   1     127.720 143.310 161.5170  0.00  0.00     0.000 O
ATOM      7   O  A00 X   1     124.016 144.749 161.7430  0.00  0.00     0.000 O
ATOM      9  HD  A00 X   1     124.634 145.294 162.0080  0.00  0.00     0.000 HD
ATOM      9   O  A00 X   1     127.184 145.893 160.6810  0.00  0.00     0.000 O
ATOM     11  HD  A00 X   1     127.802 146.438 160.9460  0.00  0.00     0.000 HD
ENDROOT
BRANCH 2 11
ATOM     11   O  A00 X   1     124.877 142.608 159.4180  0.00  0.00     0.000 O
ATOM     12   O  A00 X   1     122.815 143.440 158.5100  0.00  0.00     0.000 OA
ATOM     13   O  A00 X   1     122.757 141.991 160.4630  0.00  0.00     0.000 OA
ATOM     14   O  A00 X   1     123.419 141.133 158.3460  0.00  0.00     0.000 OA
ATOM     15   S  A00 X   1     123.358 142.293 159.1930  0.00  0.00     0.000 S
ENDBRANCH 2 11
BRANCH 5 16
ATOM     16   C  A00 X   1     126.454 143.612 163.6420  0.00  0.00     0.000 C
ATOM     17   O  A00 X   1     125.416 144.111 164.0230  0.00  0.00     0.000 OA
ATOM     18   O  A00 X   1     126.867 142.615 164.1990  0.00  0.00     0.000 OA
ENDBRANCH 5 16
BRANCH 1 19
ATOM     19  O4  A00 X   2     126.782 141.109 161.5680  0.00  0.00     0.000 O
BRANCH 19 23
ATOM     20  C1  A00 X   2     129.871 139.549 159.0400  0.00  0.00     0.000 C
ATOM     21  C2  A00 X   2     128.409 139.171 158.6990  0.00  0.00     0.000 C
ATOM     22  C3  A00 X   2     127.417 140.125 159.3970  0.00  0.00     0.000 C
ATOM     23  C4  A00 X   2     127.686 140.170 160.9180  0.00  0.00     0.000 C
ATOM     24  C5  A00 X   2     129.180 140.539 161.1260  0.00  0.00     0.000 C
ATOM     25  O5  A00 X   2     130.004 139.529 160.4870  0.00  0.00     0.000 O
ATOM     26   O  A00 X   2     126.082 139.777 158.9950  0.00  0.00     0.000 O
ATOM     28  HD  A00 X   2     126.192 138.937 159.1770  0.00  0.00     0.000 HD
BRANCH 21 30
ATOM     28   N  A00 X   2     128.891 137.860 158.2520  0.00  0.00     0.000 N
ATOM     30  HD  A00 X   2     128.089 137.953 157.9380  0.00  0.00     0.000 HD
ATOM     30   O  A00 X   2     127.505 137.128 156.5190  0.00  0.00     0.000 OA
ATOM     31   S  A00 X   2     127.830 136.759 157.8510  0.00  0.00     0.000 S
ATOM     32   O  A00 X   2     128.553 135.531 157.9790  0.00  0.00     0.000 OA
ATOM     33   O  A00 X   2     126.774 136.816 158.8170  0.00  0.00     0.000 OA
ENDBRANCH 21 30
BRANCH 24 34
ATOM     34   C  A00 X   2     129.652 140.874 162.5600  0.00  0.00     0.000 C
ATOM     35   O  A00 X   2     129.341 138.608 165.3930  0.00  0.00     0.000 OA
ATOM     36   O  A00 X   2     129.091 139.959 163.5220  0.00  0.00     0.000 O
ATOM     37   O  A00 X   2     130.442 138.056 163.3740  0.00  0.00     0.000 OA
ATOM     38   S  A00 X   2     130.137 139.092 164.3130  0.00  0.00     0.000 S
ATOM     39   O  A00 X   2     131.196 139.979 164.6900  0.00  0.00     0.000 OA
ENDBRANCH 24 34
BRANCH 20 40
ATOM     40  O4  A00 X   3     130.047 140.889 158.5600  0.00  0.00     0.000 O
BRANCH 40 44
ATOM     41  C1  A00 X   3     131.328 144.204 159.2640  0.00  0.00     0.000 C
ATOM     42  C2  A00 X   3     130.566 143.809 157.9810  0.00  0.00     0.000 C
ATOM     43  C3  A00 X   3     131.184 142.542 157.3360  0.00  0.00     0.000 C
ATOM     44  C4  A00 X   3     131.381 141.375 158.2960  0.00  0.00     0.000 C
ATOM     45  C5  A00 X   3     132.157 141.849 159.5570  0.00  0.00     0.000 C
ATOM     46  O5  A00 X   3     131.546 143.052 160.1260  0.00  0.00     0.000 O
ATOM     47   O  A00 X   3     130.614 142.133 156.0940  0.00  0.00     0.000 O
ATOM     49  HD  A00 X   3     130.728 141.343 156.4300  0.00  0.00     0.000 HD
BRANCH 42 49
ATOM     49   O  A00 X   3     129.188 143.593 158.3560  0.00  0.00     0.000 O
ATOM     50   O  A00 X   3     127.179 142.905 157.2510  0.00  0.00     0.000 OA
ATOM     51   O  A00 X   3     128.629 144.412 156.1490  0.00  0.00     0.000 OA
ATOM     52   O  A00 X   3     127.467 145.163 158.0650  0.00  0.00     0.000 OA
ATOM     53   S  A00 X   3     128.036 144.038 157.4080  0.00  0.00     0.000 S
ENDBRANCH 42 49
BRANCH 45 54
ATOM     54   C  A00 X   3     133.656 142.009 159.2740  0.00  0.00     0.000 C
ATOM     55   O  A00 X   3     134.085 141.920 158.1420  0.00  0.00     0.000 OA
ATOM     56   O  A00 X   3     134.444 142.228 160.1810  0.00  0.00     0.000 OA
ENDBRANCH 45 54
BRANCH 41 57
ATOM     57  O4  A00 X   4     132.529 144.949 158.9650  0.00  0.00     0.000 O
BRANCH 57 61
ATOM     58  C1  A00 X   4     134.588 148.151 161.0010  0.00  0.00     0.000 C
ATOM     59  C2  A00 X   4     134.446 146.786 161.7190  0.00  0.00     0.000 C
ATOM     60  C3  A00 X   4     134.027 145.638 160.7790  0.00  0.00     0.000 C
ATOM     61  C4  A00 X   4     132.831 146.034 159.8880  0.00  0.00     0.000 C
ATOM     62  C5  A00 X   4     133.270 147.297 159.1060  0.00  0.00     0.000 C
ATOM     63  O5  A00 X   4     133.527 148.373 160.0440  0.00  0.00     0.000 O
BRANCH 59 66
ATOM     64   N  A00 X   4     133.387 146.871 162.7410  0.00  0.00     0.000 N
ATOM     66  HD  A00 X   4     132.751 147.444 162.6110  0.00  0.00     0.000 HD
ATOM     66   O  A00 X   4     135.022 147.858 164.2090  0.00  0.00     0.000 OA
ATOM     67   S  A00 X   4     133.822 147.084 164.2660  0.00  0.00     0.000 S
ATOM     68   O  A00 X   4     132.668 147.770 164.7700  0.00  0.00     0.000 OA
ATOM     69   O  A00 X   4     133.926 145.717 164.6920  0.00  0.00     0.000 OA
ENDBRANCH 59 66
BRANCH 62 70
ATOM     70   C  A00 X   4     132.234 147.788 158.0660  0.00  0.00     0.000 C
ATOM     71   O  A00 X   4     129.001 149.313 158.6410  0.00  0.00     0.000 OA
ATOM     72   O  A00 X   4     129.629 147.529 157.2370  0.00  0.00     0.000 OA
ATOM     73   O  A00 X   4     131.213 148.546 158.7350  0.00  0.00     0.000 O
ATOM     74   O  A00 X   4     129.457 147.167 159.6410  0.00  0.00     0.000 OA
ATOM     75   S  A00 X   4     129.726 148.075 158.5730  0.00  0.00     0.000 S
ENDBRANCH 62 70
ENDBRANCH 57 61
ENDBRANCH 41 57
ENDBRANCH 40 44
ENDBRANCH 20 40
ENDBRANCH 19 23
ENDBRANCH 1 19
TORSDOF 14
ENDMDL
MODEL 66
REMARK VINA RESULT:      -0.4    194.823    199.331
ROOT
ATOM      1  C1  A00 X   1      27.450 115.387 189.6970  0.00  0.00     0.000 C
ATOM      2  C2  A00 X   1      26.786 115.104 188.3230  0.00  0.00     0.000 C
ATOM      3  C3  A00 X   1      25.378 114.423 188.3670  0.00  0.00     0.000 C
ATOM      4  C4  A00 X   1      24.985 113.788 189.7260  0.00  0.00     0.000 C
ATOM      5  C5  A00 X   1      26.207 113.460 190.5840  0.00  0.00     0.000 C
ATOM      6  O5  A00 X   1      26.833 114.738 190.8360  0.00  0.00     0.000 O
ATOM      7   O  A00 X   1      25.348 113.372 187.4050  0.00  0.00     0.000 O
ATOM      9  HD  A00 X   1      24.950 113.079 188.1160  0.00  0.00     0.000 HD
ATOM      9   O  A00 X   1      24.094 114.629 190.4580  0.00  0.00     0.000 O
ATOM     11  HD  A00 X   1      23.696 114.336 191.1680  0.00  0.00     0.000 HD
ENDROOT
BRANCH 2 11
ATOM     11   O  A00 X   1      26.678 116.358 187.6210  0.00  0.00     0.000 O
ATOM     12   O  A00 X   1      25.481 116.556 185.5490  0.00  0.00     0.000 OA
ATOM     13   O  A00 X   1      27.467 115.155 185.6470  0.00  0.00     0.000 OA
ATOM     14   O  A00 X   1      27.648 117.519 185.8430  0.00  0.00     0.000 OA
ATOM     15   S  A00 X   1      26.815 116.367 186.0600  0.00  0.00     0.000 S
ENDBRANCH 2 11
BRANCH 5 16
ATOM     16   C  A00 X   1      27.159 112.419 189.9860  0.00  0.00     0.000 C
ATOM     17   O  A00 X   1      26.750 111.703 189.0940  0.00  0.00     0.000 OA
ATOM     18   O  A00 X   1      28.305 112.289 190.3660  0.00  0.00     0.000 OA
ENDBRANCH 5 16
BRANCH 1 19
ATOM     19  O4  A00 X   2      28.883 115.177 189.6810  0.00  0.00     0.000 O
BRANCH 19 23
ATOM     20  C1  A00 X   2      29.718 118.569 192.1630  0.00  0.00     0.000 C
ATOM     21  C2  A00 X   2      29.864 118.750 190.6320  0.00  0.00     0.000 C
ATOM     22  C3  A00 X   2      29.131 117.624 189.8740  0.00  0.00     0.000 C
ATOM     23  C4  A00 X   2      29.611 116.238 190.3620  0.00  0.00     0.000 C
ATOM     24  C5  A00 X   2      29.432 116.191 191.9040  0.00  0.00     0.000 C
ATOM     25  O5  A00 X   2      30.225 117.250 192.5000  0.00  0.00     0.000 O
ATOM     26   O  A00 X   2      29.237 117.874 188.4620  0.00  0.00     0.000 O
ATOM     28  HD  A00 X   2      30.095 117.989 188.4950  0.00  0.00     0.000 HD
BRANCH 21 30
ATOM     28   N  A00 X   2      30.980 119.667 190.8850  0.00  0.00     0.000 N
ATOM     30  HD  A00 X   2      30.737 119.789 190.0620  0.00  0.00     0.000 HD
ATOM     30   O  A00 X   2      31.004 121.269 189.1850  0.00  0.00     0.000 OA
ATOM     31   S  A00 X   2      31.815 120.202 189.6540  0.00  0.00     0.000 S
ATOM     32   O  A00 X   2      33.059 120.600 190.2360  0.00  0.00     0.000 OA
ATOM     33   O  A00 X   2      32.013 119.097 188.7640  0.00  0.00     0.000 OA
ENDBRANCH 21 30
BRANCH 24 34
ATOM     34   C  A00 X   2      29.623 114.830 192.6150  0.00  0.00     0.000 C
ATOM     35   O  A00 X   2      32.193 114.176 195.1110  0.00  0.00     0.000 OA
ATOM     36   O  A00 X   2      30.907 114.758 193.2680  0.00  0.00     0.000 O
ATOM     37   O  A00 X   2      30.605 115.921 195.2750  0.00  0.00     0.000 OA
ATOM     38   S  A00 X   2      30.855 114.584 194.8300  0.00  0.00     0.000 S
ATOM     39   O  A00 X   2      29.852 113.597 195.0950  0.00  0.00     0.000 OA
ENDBRANCH 24 34
BRANCH 20 40
ATOM     40  O4  A00 X   3      28.309 118.624 192.4280  0.00  0.00     0.000 O
BRANCH 40 44
ATOM     41  C1  A00 X   3      25.451 117.255 194.1830  0.00  0.00     0.000 C
ATOM     42  C2  A00 X   3      25.390 118.431 193.1850  0.00  0.00     0.000 C
ATOM     43  C3  A00 X   3      26.440 119.515 193.5380  0.00  0.00     0.000 C
ATOM     44  C4  A00 X   3      27.853 118.984 193.7490  0.00  0.00     0.000 C
ATOM     45  C5  A00 X   3      27.833 117.810 194.7680  0.00  0.00     0.000 C
ATOM     46  O5  A00 X   3      26.821 116.816 194.4010  0.00  0.00     0.000 O
ATOM     47   O  A00 X   3      26.417 120.692 192.7320  0.00  0.00     0.000 O
ATOM     49  HD  A00 X   3      27.277 120.623 192.8060  0.00  0.00     0.000 HD
BRANCH 42 49
ATOM     49   O  A00 X   3      25.621 117.881 191.8690  0.00  0.00     0.000 O
ATOM     50   O  A00 X   3      25.819 118.739 189.6430  0.00  0.00     0.000 OA
ATOM     51   O  A00 X   3      24.145 119.621 191.0610  0.00  0.00     0.000 OA
ATOM     52   O  A00 X   3      23.930 117.388 190.3160  0.00  0.00     0.000 OA
ATOM     53   S  A00 X   3      24.842 118.431 190.6390  0.00  0.00     0.000 S
ENDBRANCH 42 49
BRANCH 45 54
ATOM     54   C  A00 X   3      27.690 118.311 196.2100  0.00  0.00     0.000 C
ATOM     55   O  A00 X   3      27.765 117.539 197.1440  0.00  0.00     0.000 OA
ATOM     56   O  A00 X   3      27.499 119.494 196.4440  0.00  0.00     0.000 OA
ENDBRANCH 45 54
BRANCH 41 57
ATOM     57  O4  A00 X   4      24.729 117.550 195.4000  0.00  0.00     0.000 O
BRANCH 57 61
ATOM     58  C1  A00 X   4      22.432 115.107 198.1200  0.00  0.00     0.000 C
ATOM     59  C2  A00 X   4      23.939 114.799 197.9390  0.00  0.00     0.000 C
ATOM     60  C3  A00 X   4      24.720 115.932 197.2420  0.00  0.00     0.000 C
ATOM     61  C4  A00 X   4      23.997 116.428 195.9710  0.00  0.00     0.000 C
ATOM     62  C5  A00 X   4      22.586 116.882 196.4210  0.00  0.00     0.000 C
ATOM     63  O5  A00 X   4      21.864 115.741 196.9510  0.00  0.00     0.000 O
BRANCH 59 66
ATOM     64   N  A00 X   4      24.125 113.614 197.0820  0.00  0.00     0.000 N
ATOM     66  HD  A00 X   4      23.511 113.446 196.4940  0.00  0.00     0.000 HD
ATOM     66   O  A00 X   4      23.713 112.262 199.0320  0.00  0.00     0.000 OA
ATOM     67   S  A00 X   4      24.412 112.207 197.7860  0.00  0.00     0.000 S
ATOM     68   O  A00 X   4      23.863 111.312 196.8100  0.00  0.00     0.000 OA
ATOM     69   O  A00 X   4      25.847 112.230 197.8220  0.00  0.00     0.000 OA
ENDBRANCH 59 66
BRANCH 62 70
ATOM     70   C  A00 X   4      21.738 117.520 195.2950  0.00  0.00     0.000 C
ATOM     71   O  A00 X   4      20.267 115.929 192.3940  0.00  0.00     0.000 OA
ATOM     72   O  A00 X   4      21.572 117.881 192.5770  0.00  0.00     0.000 OA
ATOM     73   O  A00 X   4      21.160 116.481 194.4890  0.00  0.00     0.000 O
ATOM     74   O  A00 X   4      22.640 115.698 192.7560  0.00  0.00     0.000 OA
ATOM     75   S  A00 X   4      21.467 116.488 192.9510  0.00  0.00     0.000 S
ENDBRANCH 62 70
ENDBRANCH 57 61
ENDBRANCH 41 57
ENDBRANCH 40 44
ENDBRANCH 20 40
ENDBRANCH 19 23
ENDBRANCH 1 19
TORSDOF 14
ENDMDL
MODEL 67
REMARK VINA RESULT:      -0.4    114.163    118.796
ROOT
ATOM      1  C1  A00 X   1     130.452  89.468 166.7800  0.00  0.00     0.000 C
ATOM      2  C2  A00 X   1     131.418  88.905 167.8570  0.00  0.00     0.000 C
ATOM      3  C3  A00 X   1     132.672  89.782 168.1800  0.00  0.00     0.000 C
ATOM      4  C4  A00 X   1     132.993  90.895 167.1500  0.00  0.00     0.000 C
ATOM      5  C5  A00 X   1     132.390  90.603 165.7770  0.00  0.00     0.000 C
ATOM      6  O5  A00 X   1     130.962  90.578 166.0010  0.00  0.00     0.000 O
ATOM      7   O  A00 X   1     133.819  88.936 168.2330  0.00  0.00     0.000 O
ATOM      9  HD  A00 X   1     134.053  89.659 167.8160  0.00  0.00     0.000 HD
ATOM      9   O  A00 X   1     132.552  92.173 167.6090  0.00  0.00     0.000 O
ATOM     11  HD  A00 X   1     132.786  92.895 167.1920  0.00  0.00     0.000 HD
ENDROOT
BRANCH 2 11
ATOM     11   O  A00 X   1     130.659  88.708 169.0660  0.00  0.00     0.000 O
ATOM     12   O  A00 X   1     131.705  88.075 171.1330  0.00  0.00     0.000 OA
ATOM     13   O  A00 X   1     131.778  86.544 169.2440  0.00  0.00     0.000 OA
ATOM     14   O  A00 X   1     129.721  86.998 170.3480  0.00  0.00     0.000 OA
ATOM     15   S  A00 X   1     131.021  87.503 170.0000  0.00  0.00     0.000 S
ENDBRANCH 2 11
BRANCH 5 16
ATOM     16   C  A00 X   1     132.924  89.342 165.0900  0.00  0.00     0.000 C
ATOM     17   O  A00 X   1     132.350  88.930 164.1020  0.00  0.00     0.000 OA
ATOM     18   O  A00 X   1     133.902  88.745 165.4930  0.00  0.00     0.000 OA
ENDBRANCH 5 16
BRANCH 1 19
ATOM     19  O4  A00 X   2     129.899  88.435 165.9280  0.00  0.00     0.000 O
BRANCH 19 23
ATOM     20  C1  A00 X   2     126.019  90.243 165.7310  0.00  0.00     0.000 C
ATOM     21  C2  A00 X   2     126.225  89.106 166.7600  0.00  0.00     0.000 C
ATOM     22  C3  A00 X   2     127.728  88.864 167.0180  0.00  0.00     0.000 C
ATOM     23  C4  A00 X   2     128.473  88.613 165.6880  0.00  0.00     0.000 C
ATOM     24  C5  A00 X   2     128.172  89.808 164.7420  0.00  0.00     0.000 C
ATOM     25  O5  A00 X   2     126.739  89.881 164.5230  0.00  0.00     0.000 O
ATOM     26   O  A00 X   2     127.865  87.850 168.0270  0.00  0.00     0.000 O
ATOM     28  HD  A00 X   2     127.325  87.305 167.6250  0.00  0.00     0.000 HD
BRANCH 21 30
ATOM     28   N  A00 X   2     124.832  88.712 166.5290  0.00  0.00     0.000 N
ATOM     30  HD  A00 X   2     125.089  88.310 167.2520  0.00  0.00     0.000 HD
ATOM     30   O  A00 X   2     124.000  87.786 168.5050  0.00  0.00     0.000 OA
ATOM     31   S  A00 X   2     124.304  87.373 167.1820  0.00  0.00     0.000 S
ATOM     32   O  A00 X   2     123.170  87.029 166.3800  0.00  0.00     0.000 OA
ATOM     33   O  A00 X   2     125.337  86.391 167.0290  0.00  0.00     0.000 OA
ENDBRANCH 21 30
BRANCH 24 34
ATOM     34   C  A00 X   2     128.982  89.916 163.4280  0.00  0.00     0.000 C
ATOM     35   O  A00 X   2     129.056  87.338 160.8580  0.00  0.00     0.000 OA
ATOM     36   O  A00 X   2     129.107  88.632 162.7840  0.00  0.00     0.000 O
ATOM     37   O  A00 X   2     127.073  88.341 161.6670  0.00  0.00     0.000 OA
ATOM     38   S  A00 X   2     128.457  88.532 161.3560  0.00  0.00     0.000 S
ATOM     39   O  A00 X   2     128.821  89.730 160.6610  0.00  0.00     0.000 OA
ENDBRANCH 24 34
BRANCH 20 40
ATOM     40  O4  A00 X   3     126.618  91.409 166.3160  0.00  0.00     0.000 O
BRANCH 40 44
ATOM     41  C1  A00 X   3     128.684  94.359 165.9210  0.00  0.00     0.000 C
ATOM     42  C2  A00 X   3     128.029  93.913 167.2470  0.00  0.00     0.000 C
ATOM     43  C3  A00 X   3     126.516  93.637 167.0540  0.00  0.00     0.000 C
ATOM     44  C4  A00 X   3     126.184  92.717 165.8860  0.00  0.00     0.000 C
ATOM     45  C5  A00 X   3     126.873  93.233 164.5910  0.00  0.00     0.000 C
ATOM     46  O5  A00 X   3     128.296  93.490 164.8210  0.00  0.00     0.000 O
ATOM     47   O  A00 X   3     125.789  93.301 168.2340  0.00  0.00     0.000 O
ATOM     49  HD  A00 X   3     125.393  92.749 167.6970  0.00  0.00     0.000 HD
BRANCH 42 49
ATOM     49   O  A00 X   3     128.730  92.730 167.6880  0.00  0.00     0.000 O
ATOM     50   O  A00 X   3     128.536  91.174 169.4970  0.00  0.00     0.000 OA
ATOM     51   O  A00 X   3     128.245  93.479 169.9380  0.00  0.00     0.000 OA
ATOM     52   O  A00 X   3     130.398  92.708 169.3410  0.00  0.00     0.000 OA
ATOM     53   S  A00 X   3     128.999  92.494 169.2030  0.00  0.00     0.000 S
ENDBRANCH 42 49
BRANCH 45 54
ATOM     54   C  A00 X   3     126.131  94.435 163.9940  0.00  0.00     0.000 C
ATOM     55   O  A00 X   3     125.173  94.916 164.5630  0.00  0.00     0.000 OA
ATOM     56   O  A00 X   3     126.490  94.929 162.9360  0.00  0.00     0.000 OA
ENDBRANCH 45 54
BRANCH 41 57
ATOM     57  O4  A00 X   4     128.466  95.764 165.6640  0.00  0.00     0.000 O
BRANCH 57 61
ATOM     58  C1  A00 X   4     130.865  98.814 163.7710  0.00  0.00     0.000 C
ATOM     59  C2  A00 X   4     130.412  97.597 162.9270  0.00  0.00     0.000 C
ATOM     60  C3  A00 X   4     129.285  96.776 163.5870  0.00  0.00     0.000 C
ATOM     61  C4  A00 X   4     129.594  96.465 165.0670  0.00  0.00     0.000 C
ATOM     62  C5  A00 X   4     129.805  97.832 165.7640  0.00  0.00     0.000 C
ATOM     63  O5  A00 X   4     130.955  98.494 165.1780  0.00  0.00     0.000 O
BRANCH 59 66
ATOM     64   N  A00 X   4     131.539  96.661 162.7580  0.00  0.00     0.000 N
ATOM     66  HD  A00 X   4     132.146  96.651 163.3750  0.00  0.00     0.000 HD
ATOM     66   O  A00 X   4     132.300  98.062 160.9530  0.00  0.00     0.000 OA
ATOM     67   S  A00 X   4     132.356  96.700 161.3830  0.00  0.00     0.000 S
ATOM     68   O  A00 X   4     133.639  96.246 161.8330  0.00  0.00     0.000 OA
ATOM     69   O  A00 X   4     131.620  95.728 160.6250  0.00  0.00     0.000 OA
ENDBRANCH 59 66
BRANCH 62 70
ATOM     70   C  A00 X   4     130.020  97.735 167.2940  0.00  0.00     0.000 C
ATOM     71   O  A00 X   4     132.869  96.416 169.0980  0.00  0.00     0.000 OA
ATOM     72   O  A00 X   4     130.565  95.999 169.3510  0.00  0.00     0.000 OA
ATOM     73   O  A00 X   4     131.386  97.378 167.5590  0.00  0.00     0.000 O
ATOM     74   O  A00 X   4     131.771  95.000 167.4840  0.00  0.00     0.000 OA
ATOM     75   S  A00 X   4     131.655  96.085 168.4050  0.00  0.00     0.000 S
ENDBRANCH 62 70
ENDBRANCH 57 61
ENDBRANCH 41 57
ENDBRANCH 40 44
ENDBRANCH 20 40
ENDBRANCH 19 23
ENDBRANCH 1 19
TORSDOF 14
ENDMDL
MODEL 68
REMARK VINA RESULT:      -0.4    138.218    142.578
ROOT
ATOM      1  C1  A00 X   1     101.934  99.893 181.1650  0.00  0.00     0.000 C
ATOM      2  C2  A00 X   1     102.147 101.428 181.2440  0.00  0.00     0.000 C
ATOM      3  C3  A00 X   1     101.945 102.219 179.9090  0.00  0.00     0.000 C
ATOM      4  C4  A00 X   1     101.924 101.360 178.6190  0.00  0.00     0.000 C
ATOM      5  C5  A00 X   1     102.628 100.016 178.8090  0.00  0.00     0.000 C
ATOM      6  O5  A00 X   1     101.859  99.339 179.8280  0.00  0.00     0.000 O
ATOM      7   O  A00 X   1     103.018 103.146 179.7600  0.00  0.00     0.000 O
ATOM      9  HD  A00 X   1     102.873 102.796 178.9810  0.00  0.00     0.000 HD
ATOM      9   O  A00 X   1     100.590 101.144 178.1580  0.00  0.00     0.000 O
ATOM     11  HD  A00 X   1     100.445 100.794 177.3790  0.00  0.00     0.000 HD
ENDROOT
BRANCH 2 11
ATOM     11   O  A00 X   1     101.241 101.946 182.2380  0.00  0.00     0.000 O
ATOM     12   O  A00 X   1     101.263 104.255 182.8960  0.00  0.00     0.000 OA
ATOM     13   O  A00 X   1     103.213 102.872 183.3430  0.00  0.00     0.000 OA
ATOM     14   O  A00 X   1     101.174 102.492 184.5070  0.00  0.00     0.000 OA
ATOM     15   S  A00 X   1     101.780 102.971 183.2940  0.00  0.00     0.000 S
ENDBRANCH 2 11
BRANCH 5 16
ATOM     16   C  A00 X   1     104.123 100.108 179.1300  0.00  0.00     0.000 C
ATOM     17   O  A00 X   1     104.702 101.152 178.9070  0.00  0.00     0.000 OA
ATOM     18   O  A00 X   1     104.747  99.180 179.6040  0.00  0.00     0.000 OA
ENDBRANCH 5 16
BRANCH 1 19
ATOM     19  O4  A00 X   2     102.867  99.154 181.9910  0.00  0.00     0.000 O
BRANCH 19 23
ATOM     20  C1  A00 X   2      99.998  96.169 183.0960  0.00  0.00     0.000 C
ATOM     21  C2  A00 X   2     100.248  97.324 184.0950  0.00  0.00     0.000 C
ATOM     22  C3  A00 X   2     100.947  98.511 183.3990  0.00  0.00     0.000 C
ATOM     23  C4  A00 X   2     102.236  98.042 182.6890  0.00  0.00     0.000 C
ATOM     24  C5  A00 X   2     101.856  96.877 181.7350  0.00  0.00     0.000 C
ATOM     25  O5  A00 X   2     101.279  95.800 182.5190  0.00  0.00     0.000 O
ATOM     26   O  A00 X   2     101.094  99.580 184.3490  0.00  0.00     0.000 O
ATOM     28  HD  A00 X   2     101.446  99.066 184.9500  0.00  0.00     0.000 HD
BRANCH 21 30
ATOM     28   N  A00 X   2     100.037  96.374 185.1920  0.00  0.00     0.000 N
ATOM     30  HD  A00 X   2      99.978  97.168 185.5330  0.00  0.00     0.000 HD
ATOM     30   O  A00 X   2      99.086  97.532 186.9840  0.00  0.00     0.000 OA
ATOM     31   S  A00 X   2     100.296  96.857 186.6750  0.00  0.00     0.000 S
ATOM     32   O  A00 X   2     100.510  95.640 187.3950  0.00  0.00     0.000 OA
ATOM     33   O  A00 X   2     101.493  97.644 186.6600  0.00  0.00     0.000 OA
ENDBRANCH 21 30
BRANCH 24 34
ATOM     34   C  A00 X   2     102.926  96.380 180.7340  0.00  0.00     0.000 C
ATOM     35   O  A00 X   2     104.297  93.006 180.7210  0.00  0.00     0.000 OA
ATOM     36   O  A00 X   2     103.526  95.147 181.1810  0.00  0.00     0.000 O
ATOM     37   O  A00 X   2     101.988  93.495 180.5690  0.00  0.00     0.000 OA
ATOM     38   S  A00 X   2     103.313  93.914 180.2290  0.00  0.00     0.000 S
ATOM     39   O  A00 X   2     103.538  94.388 178.8960  0.00  0.00     0.000 OA
ENDBRANCH 24 34
BRANCH 20 40
ATOM     40  O4  A00 X   3      99.152  96.716 182.0750  0.00  0.00     0.000 O
BRANCH 40 44
ATOM     41  C1  A00 X   3      98.363  97.015 178.5510  0.00  0.00     0.000 C
ATOM     42  C2  A00 X   3      97.592  97.719 179.6890  0.00  0.00     0.000 C
ATOM     43  C3  A00 X   3      97.184  96.708 180.7910  0.00  0.00     0.000 C
ATOM     44  C4  A00 X   3      98.320  95.828 181.2960  0.00  0.00     0.000 C
ATOM     45  C5  A00 X   3      99.043  95.153 180.0970  0.00  0.00     0.000 C
ATOM     46  O5  A00 X   3      99.400  96.141 179.0770  0.00  0.00     0.000 O
ATOM     47   O  A00 X   3      96.389  97.232 181.8530  0.00  0.00     0.000 O
ATOM     49  HD  A00 X   3      96.885  96.708 182.3320  0.00  0.00     0.000 HD
BRANCH 42 49
ATOM     49   O  A00 X   3      98.457  98.750 180.2120  0.00  0.00     0.000 O
ATOM     50   O  A00 X   3      98.357 100.367 181.9750  0.00  0.00     0.000 OA
ATOM     51   O  A00 X   3      96.432 100.000 180.6530  0.00  0.00     0.000 OA
ATOM     52   O  A00 X   3      98.310 101.025 179.6490  0.00  0.00     0.000 OA
ATOM     53   S  A00 X   3      97.869 100.121 180.6550  0.00  0.00     0.000 S
ENDBRANCH 42 49
BRANCH 45 54
ATOM     54   C  A00 X   3      98.236  93.975 179.5380  0.00  0.00     0.000 C
ATOM     55   O  A00 X   3      98.728  93.216 178.7280  0.00  0.00     0.000 OA
ATOM     56   O  A00 X   3      97.084  93.780 179.8970  0.00  0.00     0.000 OA
ENDBRANCH 45 54
BRANCH 41 57
ATOM     57  O4  A00 X   4      97.468  96.369 177.6190  0.00  0.00     0.000 O
BRANCH 57 61
ATOM     58  C1  A00 X   4      97.640  95.703 173.3570  0.00  0.00     0.000 C
ATOM     59  C2  A00 X   4      98.732  95.065 174.2520  0.00  0.00     0.000 C
ATOM     60  C3  A00 X   4      98.375  95.064 175.7520  0.00  0.00     0.000 C
ATOM     61  C4  A00 X   4      97.870  96.446 176.2220  0.00  0.00     0.000 C
ATOM     62  C5  A00 X   4      96.650  96.790 175.3310  0.00  0.00     0.000 C
ATOM     63  O5  A00 X   4      97.082  96.897 173.9510  0.00  0.00     0.000 O
BRANCH 59 66
ATOM     64   N  A00 X   4      99.991  95.827 174.1520  0.00  0.00     0.000 N
ATOM     66  HD  A00 X   4      99.934  96.670 173.9650  0.00  0.00     0.000 HD
ATOM     66   O  A00 X   4     100.443  94.618 172.1190  0.00  0.00     0.000 OA
ATOM     67   S  A00 X   4     101.137  95.271 173.1840  0.00  0.00     0.000 S
ATOM     68   O  A00 X   4     101.794  96.496 172.8330  0.00  0.00     0.000 OA
ATOM     69   O  A00 X   4     101.872  94.452 174.1060  0.00  0.00     0.000 OA
ENDBRANCH 59 66
BRANCH 62 70
ATOM     70   C  A00 X   4      95.930  98.102 175.7250  0.00  0.00     0.000 C
ATOM     71   O  A00 X   4      97.112 101.510 175.4150  0.00  0.00     0.000 OA
ATOM     72   O  A00 X   4      96.145 100.381 177.2420  0.00  0.00     0.000 OA
ATOM     73   O  A00 X   4      96.662  99.221 175.1990  0.00  0.00     0.000 O
ATOM     74   O  A00 X   4      98.462  99.928 176.6360  0.00  0.00     0.000 OA
ATOM     75   S  A00 X   4      97.155 100.314 176.2090  0.00  0.00     0.000 S
ENDBRANCH 62 70
ENDBRANCH 57 61
ENDBRANCH 41 57
ENDBRANCH 40 44
ENDBRANCH 20 40
ENDBRANCH 19 23
ENDBRANCH 1 19
TORSDOF 14
ENDMDL
MODEL 69
REMARK VINA RESULT:      -0.4    157.525    161.454
ROOT
ATOM      1  C1  A00 X   1     143.932 156.149 176.2930  0.00  0.00     0.000 C
ATOM      2  C2  A00 X   1     142.886 155.008 176.4110  0.00  0.00     0.000 C
ATOM      3  C3  A00 X   1     141.386 155.437 176.3090  0.00  0.00     0.000 C
ATOM      4  C4  A00 X   1     141.112 156.955 176.4740  0.00  0.00     0.000 C
ATOM      5  C5  A00 X   1     142.236 157.666 177.2270  0.00  0.00     0.000 C
ATOM      6  O5  A00 X   1     143.403 157.495 176.3920  0.00  0.00     0.000 O
ATOM      7   O  A00 X   1     140.651 154.780 177.3390  0.00  0.00     0.000 O
ATOM      9  HD  A00 X   1     140.359 155.594 177.2980  0.00  0.00     0.000 HD
ATOM      9   O  A00 X   1     140.903 157.587 175.2110  0.00  0.00     0.000 O
ATOM     11  HD  A00 X   1     140.611 158.401 175.1690  0.00  0.00     0.000 HD
ENDROOT
BRANCH 2 11
ATOM     11   O  A00 X   1     143.170 154.045 175.3770  0.00  0.00     0.000 O
ATOM     12   O  A00 X   1     141.707 152.194 174.9300  0.00  0.00     0.000 OA
ATOM     13   O  A00 X   1     142.831 152.330 177.0830  0.00  0.00     0.000 OA
ATOM     14   O  A00 X   1     144.074 151.911 175.0980  0.00  0.00     0.000 OA
ATOM     15   S  A00 X   1     142.903 152.527 175.6610  0.00  0.00     0.000 S
ENDBRANCH 2 11
BRANCH 5 16
ATOM     16   C  A00 X   1     142.443 157.200 178.6720  0.00  0.00     0.000 C
ATOM     17   O  A00 X   1     141.554 156.578 179.2150  0.00  0.00     0.000 OA
ATOM     18   O  A00 X   1     143.465 157.426 179.2890  0.00  0.00     0.000 OA
ENDBRANCH 5 16
BRANCH 1 19
ATOM     19  O4  A00 X   2     145.068 155.962 177.1720  0.00  0.00     0.000 O
BRANCH 19 23
ATOM     20  C1  A00 X   2     147.913 157.374 174.2950  0.00  0.00     0.000 C
ATOM     21  C2  A00 X   2     147.737 155.842 174.4330  0.00  0.00     0.000 C
ATOM     22  C3  A00 X   2     146.417 155.504 175.1580  0.00  0.00     0.000 C
ATOM     23  C4  A00 X   2     146.336 156.242 176.5130  0.00  0.00     0.000 C
ATOM     24  C5  A00 X   2     146.546 157.757 176.2420  0.00  0.00     0.000 C
ATOM     25  O5  A00 X   2     147.848 157.946 175.6290  0.00  0.00     0.000 O
ATOM     26   O  A00 X   2     146.266 154.075 175.1990  0.00  0.00     0.000 O
ATOM     28  HD  A00 X   2     147.064 153.950 175.5130  0.00  0.00     0.000 HD
BRANCH 21 30
ATOM     28   N  A00 X   2     149.168 155.687 174.1560  0.00  0.00     0.000 N
ATOM     30  HD  A00 X   2     148.806 154.908 174.0490  0.00  0.00     0.000 HD
ATOM     30   O  A00 X   2     149.476 153.663 173.0300  0.00  0.00     0.000 OA
ATOM     31   S  A00 X   2     149.813 154.249 174.2790  0.00  0.00     0.000 S
ATOM     32   O  A00 X   2     151.206 154.517 174.4640  0.00  0.00     0.000 OA
ATOM     33   O  A00 X   2     149.264 153.638 175.4530  0.00  0.00     0.000 OA
ENDBRANCH 21 30
BRANCH 24 34
ATOM     34   C  A00 X   2     146.284 158.745 177.4030  0.00  0.00     0.000 C
ATOM     35   O  A00 X   2     147.996 158.621 180.6140  0.00  0.00     0.000 OA
ATOM     36   O  A00 X   2     146.827 158.250 178.6430  0.00  0.00     0.000 O
ATOM     37   O  A00 X   2     149.104 158.772 178.5300  0.00  0.00     0.000 OA
ATOM     38   S  A00 X   2     147.949 159.144 179.2880  0.00  0.00     0.000 S
ATOM     39   O  A00 X   2     147.496 160.499 179.1860  0.00  0.00     0.000 OA
ENDBRANCH 24 34
BRANCH 20 40
ATOM     40  O4  A00 X   3     146.791 157.826 173.5230  0.00  0.00     0.000 O
BRANCH 40 44
ATOM     41  C1  A00 X   3     144.161 160.282 173.1110  0.00  0.00     0.000 C
ATOM     42  C2  A00 X   3     144.370 159.055 172.1970  0.00  0.00     0.000 C
ATOM     43  C3  A00 X   3     145.839 158.972 171.7070  0.00  0.00     0.000 C
ATOM     44  C4  A00 X   3     146.882 159.079 172.8120  0.00  0.00     0.000 C
ATOM     45  C5  A00 X   3     146.608 160.337 173.6830  0.00  0.00     0.000 C
ATOM     46  O5  A00 X   3     145.209 160.380 174.1140  0.00  0.00     0.000 O
ATOM     47   O  A00 X   3     146.129 157.924 170.7840  0.00  0.00     0.000 O
ATOM     49  HD  A00 X   3     146.862 157.876 171.2430  0.00  0.00     0.000 HD
BRANCH 42 49
ATOM     49   O  A00 X   3     144.003 157.888 172.9650  0.00  0.00     0.000 O
ATOM     50   O  A00 X   3     143.989 155.520 172.6180  0.00  0.00     0.000 OA
ATOM     51   O  A00 X   3     143.276 156.935 170.8630  0.00  0.00     0.000 OA
ATOM     52   O  A00 X   3     141.937 156.785 172.8050  0.00  0.00     0.000 OA
ATOM     53   S  A00 X   3     143.258 156.702 172.2860  0.00  0.00     0.000 S
ENDBRANCH 42 49
BRANCH 45 54
ATOM     54   C  A00 X   3     147.063 161.623 172.9820  0.00  0.00     0.000 C
ATOM     55   O  A00 X   3     147.053 162.685 173.5690  0.00  0.00     0.000 OA
ATOM     56   O  A00 X   3     147.441 161.602 171.8210  0.00  0.00     0.000 OA
ENDBRANCH 45 54
BRANCH 41 57
ATOM     57  O4  A00 X   4     143.967 161.492 172.3440  0.00  0.00     0.000 O
BRANCH 57 61
ATOM     58  C1  A00 X   4     141.598 165.040 173.0020  0.00  0.00     0.000 C
ATOM     59  C2  A00 X   4     142.716 164.697 174.0180  0.00  0.00     0.000 C
ATOM     60  C3  A00 X   4     143.711 163.638 173.5010  0.00  0.00     0.000 C
ATOM     61  C4  A00 X   4     142.987 162.420 172.8900  0.00  0.00     0.000 C
ATOM     62  C5  A00 X   4     142.083 162.971 171.7590  0.00  0.00     0.000 C
ATOM     63  O5  A00 X   4     141.092 163.862 172.3330  0.00  0.00     0.000 O
BRANCH 59 66
ATOM     64   N  A00 X   4     142.119 164.121 175.2360  0.00  0.00     0.000 N
ATOM     66  HD  A00 X   4     141.364 163.705 175.1540  0.00  0.00     0.000 HD
ATOM     66   O  A00 X   4     141.680 166.374 175.9650  0.00  0.00     0.000 OA
ATOM     67   S  A00 X   4     141.923 165.073 176.5060  0.00  0.00     0.000 S
ATOM     68   O  A00 X   4     140.796 164.444 177.1300  0.00  0.00     0.000 OA
ATOM     69   O  A00 X   4     143.169 164.852 177.1830  0.00  0.00     0.000 OA
ENDBRANCH 59 66
BRANCH 62 70
ATOM     70   C  A00 X   4     141.350 161.878 170.9460  0.00  0.00     0.000 C
ATOM     71   O  A00 X   4     138.652 159.705 171.9980  0.00  0.00     0.000 OA
ATOM     72   O  A00 X   4     140.681 159.215 170.9090  0.00  0.00     0.000 OA
ATOM     73   O  A00 X   4     140.191 161.442 171.6750  0.00  0.00     0.000 O
ATOM     74   O  A00 X   4     140.686 159.725 173.2910  0.00  0.00     0.000 OA
ATOM     75   S  A00 X   4     140.072 159.916 172.0170  0.00  0.00     0.000 S
ENDBRANCH 62 70
ENDBRANCH 57 61
ENDBRANCH 41 57
ENDBRANCH 40 44
ENDBRANCH 20 40
ENDBRANCH 19 23
ENDBRANCH 1 19
TORSDOF 14
ENDMDL
MODEL 70
REMARK VINA RESULT:      -0.4    146.039    149.999
ROOT
ATOM      1  C1  A00 X   1     142.390 149.362 165.8550  0.00  0.00     0.000 C
ATOM      2  C2  A00 X   1     141.690 147.984 166.0010  0.00  0.00     0.000 C
ATOM      3  C3  A00 X   1     140.135 148.017 166.1680  0.00  0.00     0.000 C
ATOM      4  C4  A00 X   1     139.531 149.397 166.5350  0.00  0.00     0.000 C
ATOM      5  C5  A00 X   1     140.559 150.322 167.1870  0.00  0.00     0.000 C
ATOM      6  O5  A00 X   1     141.573 150.515 166.1760  0.00  0.00     0.000 O
ATOM      7   O  A00 X   1     139.770 147.123 167.2180  0.00  0.00     0.000 O
ATOM      9  HD  A00 X   1     139.285 147.835 167.3080  0.00  0.00     0.000 HD
ATOM      9   O  A00 X   1     138.962 150.037 165.3930  0.00  0.00     0.000 O
ATOM     11  HD  A00 X   1     138.478 150.749 165.4830  0.00  0.00     0.000 HD
ENDROOT
BRANCH 2 11
ATOM     11   O  A00 X   1     142.021 147.200 164.8380  0.00  0.00     0.000 O
ATOM     12   O  A00 X   1     141.384 144.893 164.6400  0.00  0.00     0.000 OA
ATOM     13   O  A00 X   1     142.939 145.552 166.3900  0.00  0.00     0.000 OA
ATOM     14   O  A00 X   1     143.591 145.636 164.1040  0.00  0.00     0.000 OA
ATOM     15   S  A00 X   1     142.497 145.719 165.0330  0.00  0.00     0.000 S
ENDBRANCH 2 11
BRANCH 5 16
ATOM     16   C  A00 X   1     141.115 149.829 168.5270  0.00  0.00     0.000 C
ATOM     17   O  A00 X   1     140.514 148.957 169.1200  0.00  0.00     0.000 OA
ATOM     18   O  A00 X   1     142.136 150.274 169.0110  0.00  0.00     0.000 OA
ENDBRANCH 5 16
BRANCH 1 19
ATOM     19  O4  A00 X   2     143.669 149.416 166.5320  0.00  0.00     0.000 O
BRANCH 19 23
ATOM     20  C1  A00 X   2     145.483 151.912 163.5580  0.00  0.00     0.000 C
ATOM     21  C2  A00 X   2     145.746 150.389 163.4690  0.00  0.00     0.000 C
ATOM     22  C3  A00 X   2     144.712 149.604 164.3040  0.00  0.00     0.000 C
ATOM     23  C4  A00 X   2     144.680 150.124 165.7590  0.00  0.00     0.000 C
ATOM     24  C5  A00 X   2     144.430 151.656 165.7100  0.00  0.00     0.000 C
ATOM     25  O5  A00 X   2     145.505 152.282 164.9620  0.00  0.00     0.000 O
ATOM     26   O  A00 X   2     144.955 148.197 164.1350  0.00  0.00     0.000 O
ATOM     28  HD  A00 X   2     145.800 148.271 164.3110  0.00  0.00     0.000 HD
BRANCH 21 30
ATOM     28   N  A00 X   2     147.092 150.689 162.9720  0.00  0.00     0.000 N
ATOM     30  HD  A00 X   2     146.939 149.855 162.7940  0.00  0.00     0.000 HD
ATOM     30   O  A00 X   2     147.722 148.981 161.5070  0.00  0.00     0.000 OA
ATOM     31   S  A00 X   2     148.110 149.496 162.7730  0.00  0.00     0.000 S
ATOM     32   O  A00 X   2     149.389 150.134 162.7990  0.00  0.00     0.000 OA
ATOM     33   O  A00 X   2     147.966 148.624 163.9000  0.00  0.00     0.000 OA
ENDBRANCH 21 30
BRANCH 24 34
ATOM     34   C  A00 X   2     144.126 152.385 167.0400  0.00  0.00     0.000 C
ATOM     35   O  A00 X   2     146.209 155.018 168.4480  0.00  0.00     0.000 OA
ATOM     36   O  A00 X   2     145.279 153.106 167.5170  0.00  0.00     0.000 O
ATOM     37   O  A00 X   2     145.283 155.087 166.2730  0.00  0.00     0.000 OA
ATOM     38   S  A00 X   2     145.098 154.664 167.6280  0.00  0.00     0.000 S
ATOM     39   O  A00 X   2     143.812 154.881 168.2210  0.00  0.00     0.000 OA
ENDBRANCH 24 34
BRANCH 20 40
ATOM     40  O4  A00 X   3     144.163 152.109 163.0300  0.00  0.00     0.000 O
BRANCH 40 44
ATOM     41  C1  A00 X   3     140.948 153.758 163.2940  0.00  0.00     0.000 C
ATOM     42  C2  A00 X   3     141.323 152.729 162.2060  0.00  0.00     0.000 C
ATOM     43  C3  A00 X   3     142.663 153.107 161.5230  0.00  0.00     0.000 C
ATOM     44  C4  A00 X   3     143.805 153.398 162.4870  0.00  0.00     0.000 C
ATOM     45  C5  A00 X   3     143.354 154.443 163.5470  0.00  0.00     0.000 C
ATOM     46  O5  A00 X   3     142.081 154.052 164.1570  0.00  0.00     0.000 O
ATOM     47   O  A00 X   3     143.066 152.273 160.4380  0.00  0.00     0.000 O
ATOM     49  HD  A00 X   3     143.850 152.389 160.7880  0.00  0.00     0.000 HD
BRANCH 42 49
ATOM     49   O  A00 X   3     141.405 151.440 162.8520  0.00  0.00     0.000 O
ATOM     50   O  A00 X   3     141.973 149.208 162.1990  0.00  0.00     0.000 OA
ATOM     51   O  A00 X   3     140.646 150.518 160.7470  0.00  0.00     0.000 OA
ATOM     52   O  A00 X   3     139.711 149.815 162.8000  0.00  0.00     0.000 OA
ATOM     53   S  A00 X   3     140.910 150.160 162.1180  0.00  0.00     0.000 S
ENDBRANCH 42 49
BRANCH 45 54
ATOM     54   C  A00 X   3     143.335 155.864 162.9700  0.00  0.00     0.000 C
ATOM     55   O  A00 X   3     143.518 156.054 161.7850  0.00  0.00     0.000 OA
ATOM     56   O  A00 X   3     143.136 156.829 163.6920  0.00  0.00     0.000 OA
ENDBRANCH 45 54
BRANCH 41 57
ATOM     57  O4  A00 X   4     140.322 154.931 162.7280  0.00  0.00     0.000 O
BRANCH 57 61
ATOM     58  C1  A00 X   4     137.252 157.606 164.1610  0.00  0.00     0.000 C
ATOM     59  C2  A00 X   4     138.576 157.502 164.9590  0.00  0.00     0.000 C
ATOM     60  C3  A00 X   4     139.712 156.812 164.1770  0.00  0.00     0.000 C
ATOM     61  C4  A00 X   4     139.240 155.497 163.5200  0.00  0.00     0.000 C
ATOM     62  C5  A00 X   4     138.046 155.871 162.6070  0.00  0.00     0.000 C
ATOM     63  O5  A00 X   4     136.967 156.397 163.4220  0.00  0.00     0.000 O
BRANCH 59 66
ATOM     64   N  A00 X   4     138.384 156.684 166.1710  0.00  0.00     0.000 N
ATOM     66  HD  A00 X   4     137.770 156.075 166.1490  0.00  0.00     0.000 HD
ATOM     66   O  A00 X   4     137.481 158.648 167.2310  0.00  0.00     0.000 OA
ATOM     67   S  A00 X   4     138.163 157.437 167.5640  0.00  0.00     0.000 S
ATOM     68   O  A00 X   4     137.380 156.460 168.2640  0.00  0.00     0.000 OA
ATOM     69   O  A00 X   4     139.521 157.536 168.0180  0.00  0.00     0.000 OA
ENDBRANCH 59 66
BRANCH 62 70
ATOM     70   C  A00 X   4     137.498 154.691 161.7690  0.00  0.00     0.000 C
ATOM     71   O  A00 X   4     135.696 151.760 162.8970  0.00  0.00     0.000 OA
ATOM     72   O  A00 X   4     137.561 151.961 161.4740  0.00  0.00     0.000 OA
ATOM     73   O  A00 X   4     136.641 153.882 162.5910  0.00  0.00     0.000 O
ATOM     74   O  A00 X   4     137.846 152.240 163.8780  0.00  0.00     0.000 OA
ATOM     75   S  A00 X   4     136.991 152.361 162.7410  0.00  0.00     0.000 S
ENDBRANCH 62 70
ENDBRANCH 57 61
ENDBRANCH 41 57
ENDBRANCH 40 44
ENDBRANCH 20 40
ENDBRANCH 19 23
ENDBRANCH 1 19
TORSDOF 14
ENDMDL
MODEL 71
REMARK VINA RESULT:      -0.4    206.658    212.048
ROOT
ATOM      1  C1  A00 X   1     191.485 202.432 194.5260  0.00  0.00     0.000 C
ATOM      2  C2  A00 X   1     192.181 201.048 194.6320  0.00  0.00     0.000 C
ATOM      3  C3  A00 X   1     193.371 200.953 195.6420  0.00  0.00     0.000 C
ATOM      4  C4  A00 X   1     193.943 202.309 196.1310  0.00  0.00     0.000 C
ATOM      5  C5  A00 X   1     193.631 203.450 195.1630  0.00  0.00     0.000 C
ATOM      6  O5  A00 X   1     192.189 203.535 195.1490  0.00  0.00     0.000 O
ATOM      7   O  A00 X   1     194.449 200.262 195.0150  0.00  0.00     0.000 O
ATOM      9  HD  A00 X   1     194.793 200.923 195.4570  0.00  0.00     0.000 HD
ATOM      9   O  A00 X   1     193.463 202.638 197.4350  0.00  0.00     0.000 O
ATOM     11  HD  A00 X   1     193.806 203.299 197.8770  0.00  0.00     0.000 HD
ENDROOT
BRANCH 2 11
ATOM     11   O  A00 X   1     191.178 200.080 194.9950  0.00  0.00     0.000 O
ATOM     12   O  A00 X   1     191.632 197.722 195.0000  0.00  0.00     0.000 OA
ATOM     13   O  A00 X   1     191.720 198.947 192.9010  0.00  0.00     0.000 OA
ATOM     14   O  A00 X   1     189.646 198.615 194.0170  0.00  0.00     0.000 OA
ATOM     15   S  A00 X   1     191.069 198.754 194.1670  0.00  0.00     0.000 S
ENDBRANCH 2 11
BRANCH 5 16
ATOM     16   C  A00 X   1     194.251 203.304 193.7690  0.00  0.00     0.000 C
ATOM     17   O  A00 X   1     195.148 202.502 193.6130  0.00  0.00     0.000 OA
ATOM     18   O  A00 X   1     193.873 203.957 192.8170  0.00  0.00     0.000 OA
ENDBRANCH 5 16
BRANCH 1 19
ATOM     19  O4  A00 X   2     191.086 202.757 193.1720  0.00  0.00     0.000 O
BRANCH 19 23
ATOM     20  C1  A00 X   2     187.526 204.808 194.3920  0.00  0.00     0.000 C
ATOM     21  C2  A00 X   2     187.380 203.341 193.9200  0.00  0.00     0.000 C
ATOM     22  C3  A00 X   2     188.744 202.620 193.9350  0.00  0.00     0.000 C
ATOM     23  C4  A00 X   2     189.787 203.413 193.1150  0.00  0.00     0.000 C
ATOM     24  C5  A00 X   2     189.825 204.862 193.6710  0.00  0.00     0.000 C
ATOM     25  O5  A00 X   2     188.506 205.451 193.5330  0.00  0.00     0.000 O
ATOM     26   O  A00 X   2     188.544 201.248 193.5560  0.00  0.00     0.000 O
ATOM     28  HD  A00 X   2     188.088 201.456 192.8500  0.00  0.00     0.000 HD
BRANCH 21 30
ATOM     28   N  A00 X   2     186.076 203.696 193.3510  0.00  0.00     0.000 N
ATOM     30  HD  A00 X   2     186.106 202.831 193.3890  0.00  0.00     0.000 HD
ATOM     30   O  A00 X   2     184.691 201.818 193.4780  0.00  0.00     0.000 OA
ATOM     31   S  A00 X   2     185.309 202.620 192.4820  0.00  0.00     0.000 S
ATOM     32   O  A00 X   2     184.409 203.402 191.6920  0.00  0.00     0.000 OA
ATOM     33   O  A00 X   2     186.280 201.981 191.6450  0.00  0.00     0.000 OA
ENDBRANCH 21 30
BRANCH 24 34
ATOM     34   C  A00 X   2     190.952 205.800 193.1760  0.00  0.00     0.000 C
ATOM     35   O  A00 X   2     190.374 208.910 191.3720  0.00  0.00     0.000 OA
ATOM     36   O  A00 X   2     190.457 206.745 192.2060  0.00  0.00     0.000 O
ATOM     37   O  A00 X   2     189.441 208.417 193.4890  0.00  0.00     0.000 OA
ATOM     38   S  A00 X   2     190.570 208.257 192.6250  0.00  0.00     0.000 S
ATOM     39   O  A00 X   2     191.872 208.422 193.1970  0.00  0.00     0.000 OA
ENDBRANCH 24 34
BRANCH 20 40
ATOM     40  O4  A00 X   3     188.037 204.735 195.7310  0.00  0.00     0.000 O
BRANCH 40 44
ATOM     41  C1  A00 X   3     190.320 205.989 198.2490  0.00  0.00     0.000 C
ATOM     42  C2  A00 X   3     189.333 204.820 198.4590  0.00  0.00     0.000 C
ATOM     43  C3  A00 X   3     187.899 205.220 198.0250  0.00  0.00     0.000 C
ATOM     44  C4  A00 X   3     187.807 205.837 196.6350  0.00  0.00     0.000 C
ATOM     45  C5  A00 X   3     188.824 207.005 196.5030  0.00  0.00     0.000 C
ATOM     46  O5  A00 X   3     190.160 206.586 196.9320  0.00  0.00     0.000 O
ATOM     47   O  A00 X   3     186.884 204.246 198.2570  0.00  0.00     0.000 O
ATOM     49  HD  A00 X   3     186.598 204.526 197.4890  0.00  0.00     0.000 HD
BRANCH 42 49
ATOM     49   O  A00 X   3     189.826 203.704 197.6870  0.00  0.00     0.000 O
ATOM     50   O  A00 X   3     189.110 201.468 197.2200  0.00  0.00     0.000 OA
ATOM     51   O  A00 X   3     188.894 202.300 199.4230  0.00  0.00     0.000 OA
ATOM     52   O  A00 X   3     191.065 201.916 198.5710  0.00  0.00     0.000 OA
ATOM     53   S  A00 X   3     189.723 202.255 198.2440  0.00  0.00     0.000 S
ENDBRANCH 42 49
BRANCH 45 54
ATOM     54   C  A00 X   3     188.331 208.271 197.2140  0.00  0.00     0.000 C
ATOM     55   O  A00 X   3     188.959 209.307 197.1400  0.00  0.00     0.000 OA
ATOM     56   O  A00 X   3     187.300 208.258 197.8690  0.00  0.00     0.000 OA
ENDBRANCH 45 54
BRANCH 41 57
ATOM     57  O4  A00 X   4     190.263 206.939 199.3360  0.00  0.00     0.000 O
BRANCH 57 61
ATOM     58  C1  A00 X   4     193.237 209.450 201.2030  0.00  0.00     0.000 C
ATOM     59  C2  A00 X   4     192.930 209.658 199.6990  0.00  0.00     0.000 C
ATOM     60  C3  A00 X   4     191.627 208.974 199.2380  0.00  0.00     0.000 C
ATOM     61  C4  A00 X   4     191.544 207.511 199.7250  0.00  0.00     0.000 C
ATOM     62  C5  A00 X   4     191.663 207.559 201.2690  0.00  0.00     0.000 C
ATOM     63  O5  A00 X   4     192.960 208.097 201.6310  0.00  0.00     0.000 O
BRANCH 59 66
ATOM     64   N  A00 X   4     193.997 209.066 198.8730  0.00  0.00     0.000 N
ATOM     66  HD  A00 X   4     194.434 208.395 199.2040  0.00  0.00     0.000 HD
ATOM     66   O  A00 X   4     195.269 211.075 199.2550  0.00  0.00     0.000 OA
ATOM     67   S  A00 X   4     195.125 210.035 198.2840  0.00  0.00     0.000 S
ATOM     68   O  A00 X   4     196.227 209.123 198.1890  0.00  0.00     0.000 OA
ATOM     69   O  A00 X   4     194.532 210.376 197.0220  0.00  0.00     0.000 OA
ENDBRANCH 59 66
BRANCH 62 70
ATOM     70   C  A00 X   4     191.490 206.185 201.9590  0.00  0.00     0.000 C
ATOM     71   O  A00 X   4     193.714 203.329 201.8980  0.00  0.00     0.000 OA
ATOM     72   O  A00 X   4     191.395 203.476 201.5150  0.00  0.00     0.000 OA
ATOM     73   O  A00 X   4     192.722 205.451 201.8700  0.00  0.00     0.000 O
ATOM     74   O  A00 X   4     192.949 204.239 199.8000  0.00  0.00     0.000 OA
ATOM     75   S  A00 X   4     192.687 204.039 201.1890  0.00  0.00     0.000 S
ENDBRANCH 62 70
ENDBRANCH 57 61
ENDBRANCH 41 57
ENDBRANCH 40 44
ENDBRANCH 20 40
ENDBRANCH 19 23
ENDBRANCH 1 19
TORSDOF 14
ENDMDL
MODEL 72
REMARK VINA RESULT:      -0.4     96.473    101.046
ROOT
ATOM      1  C1  A00 X   1      61.783  23.140  77.6380  0.00  0.00     0.000 C
ATOM      2  C2  A00 X   1      62.359  24.399  78.3400  0.00  0.00     0.000 C
ATOM      3  C3  A00 X   1      63.537  25.117  77.6050  0.00  0.00     0.000 C
ATOM      4  C4  A00 X   1      64.222  24.298  76.4800  0.00  0.00     0.000 C
ATOM      5  C5  A00 X   1      64.007  22.794  76.6490  0.00  0.00     0.000 C
ATOM      6  O5  A00 X   1      62.577  22.614  76.5470  0.00  0.00     0.000 O
ATOM      7   O  A00 X   1      64.553  25.424  78.5580  0.00  0.00     0.000 O
ATOM      9  HD  A00 X   1      64.951  25.140  77.8420  0.00  0.00     0.000 HD
ATOM      9   O  A00 X   1      63.772  24.708  75.1890  0.00  0.00     0.000 O
ATOM     11  HD  A00 X   1      64.170  24.425  74.4740  0.00  0.00     0.000 HD
ENDROOT
BRANCH 2 11
ATOM     11   O  A00 X   1      61.278  25.334  78.5200  0.00  0.00     0.000 O
ATOM     12   O  A00 X   1      61.650  27.566  79.3250  0.00  0.00     0.000 OA
ATOM     13   O  A00 X   1      62.142  25.678  80.7780  0.00  0.00     0.000 OA
ATOM     14   O  A00 X   1      59.895  26.194  80.1930  0.00  0.00     0.000 OA
ATOM     15   S  A00 X   1      61.274  26.254  79.7890  0.00  0.00     0.000 S
ENDBRANCH 2 11
BRANCH 5 16
ATOM     16   C  A00 X   1      64.612  22.193  77.9220  0.00  0.00     0.000 C
ATOM     17   O  A00 X   1      65.457  22.826  78.5200  0.00  0.00     0.000 OA
ATOM     18   O  A00 X   1      64.271  21.111  78.3570  0.00  0.00     0.000 OA
ENDBRANCH 5 16
BRANCH 1 19
ATOM     19  O4  A00 X   2      61.411  22.097  78.5720  0.00  0.00     0.000 O
BRANCH 19 23
ATOM     20  C1  A00 X   2      57.868  21.014  76.4190  0.00  0.00     0.000 C
ATOM     21  C2  A00 X   2      57.703  21.947  77.6420  0.00  0.00     0.000 C
ATOM     22  C3  A00 X   2      59.053  22.584  78.0340  0.00  0.00     0.000 C
ATOM     23  C4  A00 X   2      60.125  21.492  78.2520  0.00  0.00     0.000 C
ATOM     24  C5  A00 X   2      60.180  20.618  76.9700  0.00  0.00     0.000 C
ATOM     25  O5  A00 X   2      58.874  20.022  76.7540  0.00  0.00     0.000 O
ATOM     26   O  A00 X   2      58.835  23.491  79.1270  0.00  0.00     0.000 O
ATOM     28  HD  A00 X   2      58.396  22.907  79.5910  0.00  0.00     0.000 HD
BRANCH 21 30
ATOM     28   N  A00 X   2      56.418  21.298  77.9180  0.00  0.00     0.000 N
ATOM     30  HD  A00 X   2      56.431  22.033  78.3760  0.00  0.00     0.000 HD
ATOM     30   O  A00 X   2      54.996  22.880  78.8840  0.00  0.00     0.000 OA
ATOM     31   S  A00 X   2      55.648  21.672  79.2470  0.00  0.00     0.000 S
ATOM     32   O  A00 X   2      54.779  20.557  79.4610  0.00  0.00     0.000 OA
ATOM     33   O  A00 X   2      56.624  21.750  80.2930  0.00  0.00     0.000 OA
ENDBRANCH 21 30
BRANCH 24 34
ATOM     34   C  A00 X   2      61.333  19.594  76.8380  0.00  0.00     0.000 C
ATOM     35   O  A00 X   2      61.983  16.934  79.2370  0.00  0.00     0.000 OA
ATOM     36   O  A00 X   2      61.562  18.902  78.0820  0.00  0.00     0.000 O
ATOM     37   O  A00 X   2      59.912  17.245  78.1390  0.00  0.00     0.000 OA
ATOM     38   S  A00 X   2      61.336  17.347  78.0360  0.00  0.00     0.000 S
ATOM     39   O  A00 X   2      61.948  16.884  76.8260  0.00  0.00     0.000 OA
ENDBRANCH 24 34
BRANCH 20 40
ATOM     40  O4  A00 X   3      58.352  21.848  75.3560  0.00  0.00     0.000 O
BRANCH 40 44
ATOM     41  C1  A00 X   3      60.734  22.227  72.6530  0.00  0.00     0.000 C
ATOM     42  C2  A00 X   3      59.708  23.300  73.0790  0.00  0.00     0.000 C
ATOM     43  C3  A00 X   3      58.282  22.699  73.1680  0.00  0.00     0.000 C
ATOM     44  C4  A00 X   3      58.183  21.419  73.9880  0.00  0.00     0.000 C
ATOM     45  C5  A00 X   3      59.240  20.390  73.4980  0.00  0.00     0.000 C
ATOM     46  O5  A00 X   3      60.568  21.002  73.4190  0.00  0.00     0.000 O
ATOM     47   O  A00 X   3      57.236  23.621  73.4700  0.00  0.00     0.000 O
ATOM     49  HD  A00 X   3      56.944  22.960  73.9470  0.00  0.00     0.000 HD
BRANCH 42 49
ATOM     49   O  A00 X   3      60.143  23.818  74.3550  0.00  0.00     0.000 O
ATOM     50   O  A00 X   3      59.334  25.416  75.9430  0.00  0.00     0.000 OA
ATOM     51   O  A00 X   3      59.195  25.926  73.6390  0.00  0.00     0.000 OA
ATOM     52   O  A00 X   3      61.332  25.822  74.6430  0.00  0.00     0.000 OA
ATOM     53   S  A00 X   3      59.997  25.333  74.6800  0.00  0.00     0.000 S
ENDBRANCH 42 49
BRANCH 45 54
ATOM     54   C  A00 X   3      58.810  19.713  72.1910  0.00  0.00     0.000 C
ATOM     55   O  A00 X   3      57.841  20.112  71.5780  0.00  0.00     0.000 OA
ATOM     56   O  A00 X   3      59.432  18.762  71.7450  0.00  0.00     0.000 OA
ENDBRANCH 45 54
BRANCH 41 57
ATOM     57  O4  A00 X   4      60.735  22.028  71.2220  0.00  0.00     0.000 O
BRANCH 57 61
ATOM     58  C1  A00 X   4      63.844  20.987  68.4130  0.00  0.00     0.000 C
ATOM     59  C2  A00 X   4      63.546  20.016  69.5830  0.00  0.00     0.000 C
ATOM     60  C3  A00 X   4      62.207  20.302  70.2930  0.00  0.00     0.000 C
ATOM     61  C4  A00 X   4      62.046  21.799  70.6300  0.00  0.00     0.000 C
ATOM     62  C5  A00 X   4      62.169  22.564  69.2890  0.00  0.00     0.000 C
ATOM     63  O5  A00 X   4      63.495  22.351  68.7390  0.00  0.00     0.000 O
BRANCH 59 66
ATOM     64   N  A00 X   4      64.587  20.159  70.6170  0.00  0.00     0.000 N
ATOM     66  HD  A00 X   4      64.986  20.924  70.6790  0.00  0.00     0.000 HD
ATOM     66   O  A00 X   4      65.958  18.682  69.2980  0.00  0.00     0.000 OA
ATOM     67   S  A00 X   4      65.766  19.079  70.6580  0.00  0.00     0.000 S
ATOM     68   O  A00 X   4      66.820  19.870  71.2240  0.00  0.00     0.000 OA
ATOM     69   O  A00 X   4      65.200  18.120  71.5630  0.00  0.00     0.000 OA
ENDBRANCH 59 66
BRANCH 62 70
ATOM     70   C  A00 X   4      61.924  24.087  69.4040  0.00  0.00     0.000 C
ATOM     71   O  A00 X   4      63.990  26.596  71.0000  0.00  0.00     0.000 OA
ATOM     72   O  A00 X   4      61.682  26.167  71.1820  0.00  0.00     0.000 OA
ATOM     73   O  A00 X   4      63.114  24.724  69.8970  0.00  0.00     0.000 O
ATOM     74   O  A00 X   4      63.272  24.697  72.3010  0.00  0.00     0.000 OA
ATOM     75   S  A00 X   4      63.001  25.576  71.2090  0.00  0.00     0.000 S
ENDBRANCH 62 70
ENDBRANCH 57 61
ENDBRANCH 41 57
ENDBRANCH 40 44
ENDBRANCH 20 40
ENDBRANCH 19 23
ENDBRANCH 1 19
TORSDOF 14
ENDMDL
MODEL 73
REMARK VINA RESULT:      -0.3    136.490    140.754
ROOT
ATOM      1  C1  A00 X   1     102.486 106.758 175.6720  0.00  0.00     0.000 C
ATOM      2  C2  A00 X   1     102.353 107.010 177.1980  0.00  0.00     0.000 C
ATOM      3  C3  A00 X   1     102.075 108.488 177.6290  0.00  0.00     0.000 C
ATOM      4  C4  A00 X   1     102.328 109.561 176.5390  0.00  0.00     0.000 C
ATOM      5  C5  A00 X   1     103.294 109.072 175.4600  0.00  0.00     0.000 C
ATOM      6  O5  A00 X   1     102.624 107.945 174.8510  0.00  0.00     0.000 O
ATOM      7   O  A00 X   1     102.928 108.814 178.7240  0.00  0.00     0.000 O
ATOM      9  HD  A00 X   1     102.915 109.501 178.1970  0.00  0.00     0.000 HD
ATOM      9   O  A00 X   1     101.108 109.991 175.9350  0.00  0.00     0.000 O
ATOM     11  HD  A00 X   1     101.096 110.678 175.4080  0.00  0.00     0.000 HD
ENDROOT
BRANCH 2 11
ATOM     11   O  A00 X   1     101.292 106.170 177.6900  0.00  0.00     0.000 O
ATOM     12   O  A00 X   1     100.802 105.984 180.0340  0.00  0.00     0.000 OA
ATOM     13   O  A00 X   1     102.951 105.206 179.2010  0.00  0.00     0.000 OA
ATOM     14   O  A00 X   1     100.949 104.058 178.6250  0.00  0.00     0.000 OA
ATOM     15   S  A00 X   1     101.535 105.321 178.9850  0.00  0.00     0.000 S
ENDBRANCH 2 11
BRANCH 5 16
ATOM     16   C  A00 X   1     104.708 108.750 175.9540  0.00  0.00     0.000 C
ATOM     17   O  A00 X   1     105.059 109.181 177.0330  0.00  0.00     0.000 OA
ATOM     18   O  A00 X   1     105.486 108.074 175.3100  0.00  0.00     0.000 OA
ENDBRANCH 5 16
BRANCH 1 19
ATOM     19  O4  A00 X   2     103.500 105.774 175.3520  0.00  0.00     0.000 O
BRANCH 19 23
ATOM     20  C1  A00 X   2     101.300 104.130 172.0630  0.00  0.00     0.000 C
ATOM     21  C2  A00 X   2     101.215 103.390 173.4200  0.00  0.00     0.000 C
ATOM     22  C3  A00 X   2     101.677 104.305 174.5740  0.00  0.00     0.000 C
ATOM     23  C4  A00 X   2     103.086 104.872 174.2860  0.00  0.00     0.000 C
ATOM     24  C5  A00 X   2     103.043 105.568 172.8980  0.00  0.00     0.000 C
ATOM     25  O5  A00 X   2     102.668 104.587 171.8960  0.00  0.00     0.000 O
ATOM     26   O  A00 X   2     101.515 103.599 175.8160  0.00  0.00     0.000 O
ATOM     28  HD  A00 X   2     101.931 102.895 175.5280  0.00  0.00     0.000 HD
BRANCH 21 30
ATOM     28   N  A00 X   2     101.138 102.126 172.6820  0.00  0.00     0.000 N
ATOM     30  HD  A00 X   2     100.884 101.959 173.4930  0.00  0.00     0.000 HD
ATOM     30   O  A00 X   2      99.835 100.637 173.9250  0.00  0.00     0.000 OA
ATOM     31   S  A00 X   2     101.182 100.770 173.4930  0.00  0.00     0.000 S
ATOM     32   O  A00 X   2     101.603  99.808 172.5230  0.00  0.00     0.000 OA
ATOM     33   O  A00 X   2     102.178 100.918 174.5120  0.00  0.00     0.000 OA
ENDBRANCH 21 30
BRANCH 24 34
ATOM     34   C  A00 X   2     104.265 106.417 172.4740  0.00  0.00     0.000 C
ATOM     35   O  A00 X   2     106.350 105.691 169.5790  0.00  0.00     0.000 OA
ATOM     36   O  A00 X   2     105.092 105.709 171.5300  0.00  0.00     0.000 O
ATOM     37   O  A00 X   2     104.007 105.995 169.4770  0.00  0.00     0.000 OA
ATOM     38   S  A00 X   2     105.226 106.385 170.1160  0.00  0.00     0.000 S
ATOM     39   O  A00 X   2     105.433 107.782 170.3540  0.00  0.00     0.000 OA
ENDBRANCH 24 34
BRANCH 20 40
ATOM     40  O4  A00 X   3     100.426 105.262 172.1830  0.00  0.00     0.000 O
BRANCH 40 44
ATOM     41  C1  A00 X   3      99.826 108.783 171.5790  0.00  0.00     0.000 C
ATOM     42  C2  A00 X   3      98.844 107.833 172.2980  0.00  0.00     0.000 C
ATOM     43  C3  A00 X   3      98.599 106.551 171.4620  0.00  0.00     0.000 C
ATOM     44  C4  A00 X   3      99.867 105.851 170.9890  0.00  0.00     0.000 C
ATOM     45  C5  A00 X   3     100.800 106.868 170.2730  0.00  0.00     0.000 C
ATOM     46  O5  A00 X   3     100.994 108.066 171.0920  0.00  0.00     0.000 O
ATOM     47   O  A00 X   3      97.638 105.638 171.9900  0.00  0.00     0.000 O
ATOM     49  HD  A00 X   3      98.206 105.050 171.7020  0.00  0.00     0.000 HD
BRANCH 42 49
ATOM     49   O  A00 X   3      99.421 107.523 173.5850  0.00  0.00     0.000 O
ATOM     50   O  A00 X   3      98.845 106.144 175.4550  0.00  0.00     0.000 OA
ATOM     51   O  A00 X   3      97.144 107.396 174.3940  0.00  0.00     0.000 OA
ATOM     52   O  A00 X   3      98.810 108.557 175.6030  0.00  0.00     0.000 OA
ATOM     53   S  A00 X   3      98.514 107.392 174.8430  0.00  0.00     0.000 S
ENDBRANCH 42 49
BRANCH 45 54
ATOM     54   C  A00 X   3     100.314 107.181 168.8530  0.00  0.00     0.000 C
ATOM     55   O  A00 X   3     100.993 107.848 168.0990  0.00  0.00     0.000 OA
ATOM     56   O  A00 X   3      99.236 106.767 168.4550  0.00  0.00     0.000 OA
ENDBRANCH 45 54
BRANCH 41 57
ATOM     57  O4  A00 X   4      99.161 109.575 170.5690  0.00  0.00     0.000 O
BRANCH 57 61
ATOM     58  C1  A00 X   4      99.757 113.600 169.1250  0.00  0.00     0.000 C
ATOM     59  C2  A00 X   4     100.905 112.574 168.9560  0.00  0.00     0.000 C
ATOM     60  C3  A00 X   4     100.461 111.113 169.1710  0.00  0.00     0.000 C
ATOM     61  C4  A00 X   4      99.624 110.951 170.4580  0.00  0.00     0.000 C
ATOM     62  C5  A00 X   4      98.419 111.913 170.3180  0.00  0.00     0.000 C
ATOM     63  O5  A00 X   4      98.903 113.278 170.2480  0.00  0.00     0.000 O
BRANCH 59 66
ATOM     64   N  A00 X   4     101.964 112.807 169.9550  0.00  0.00     0.000 N
ATOM     66  HD  A00 X   4     101.731 113.165 170.7090  0.00  0.00     0.000 HD
ATOM     66   O  A00 X   4     102.807 114.539 168.5100  0.00  0.00     0.000 OA
ATOM     67   S  A00 X   4     103.266 113.619 169.5040  0.00  0.00     0.000 S
ATOM     68   O  A00 X   4     103.652 114.204 170.7550  0.00  0.00     0.000 OA
ATOM     69   O  A00 X   4     104.104 112.535 169.0770  0.00  0.00     0.000 OA
ENDBRANCH 59 66
BRANCH 62 70
ATOM     70   C  A00 X   4      97.394 111.814 171.4740  0.00  0.00     0.000 C
ATOM     71   O  A00 X   4      97.771 112.844 174.9240  0.00  0.00     0.000 OA
ATOM     72   O  A00 X   4      96.992 110.822 174.0030  0.00  0.00     0.000 OA
ATOM     73   O  A00 X   4      97.876 112.565 172.6010  0.00  0.00     0.000 O
ATOM     74   O  A00 X   4      99.380 111.305 173.9990  0.00  0.00     0.000 OA
ATOM     75   S  A00 X   4      98.046 111.811 173.9650  0.00  0.00     0.000 S
ENDBRANCH 62 70
ENDBRANCH 57 61
ENDBRANCH 41 57
ENDBRANCH 40 44
ENDBRANCH 20 40
ENDBRANCH 19 23
ENDBRANCH 1 19
TORSDOF 14
ENDMDL
MODEL 74
REMARK VINA RESULT:      -0.3    190.096    193.792
ROOT
ATOM      1  C1  A00 X   1      28.450 100.444 192.6770  0.00  0.00     0.000 C
ATOM      2  C2  A00 X   1      29.998 100.346 192.6170  0.00  0.00     0.000 C
ATOM      3  C3  A00 X   1      30.596  98.900 192.6480  0.00  0.00     0.000 C
ATOM      4  C4  A00 X   1      29.621  97.783 193.1000  0.00  0.00     0.000 C
ATOM      5  C5  A00 X   1      28.462  98.330 193.9330  0.00  0.00     0.000 C
ATOM      6  O5  A00 X   1      27.759  99.224 193.0410  0.00  0.00     0.000 O
ATOM      7   O  A00 X   1      31.690  98.878 193.5630  0.00  0.00     0.000 O
ATOM      9  HD  A00 X   1      31.241  98.147 193.6830  0.00  0.00     0.000 HD
ATOM      9   O  A00 X   1      29.111  97.053 191.9840  0.00  0.00     0.000 O
ATOM     11  HD  A00 X   1      28.663  96.322 192.1040  0.00  0.00     0.000 HD
ENDROOT
BRANCH 2 11
ATOM     11   O  A00 X   1      30.433 101.008 191.4130  0.00  0.00     0.000 O
ATOM     12   O  A00 X   1      32.718 100.933 190.6780  0.00  0.00     0.000 OA
ATOM     13   O  A00 X   1      32.180 102.031 192.7810  0.00  0.00     0.000 OA
ATOM     14   O  A00 X   1      31.477 102.975 190.7140  0.00  0.00     0.000 OA
ATOM     15   S  A00 X   1      31.805 101.766 191.4190  0.00  0.00     0.000 S
ENDBRANCH 2 11
BRANCH 5 16
ATOM     16   C  A00 X   1      28.869  98.982 195.2590  0.00  0.00     0.000 C
ATOM     17   O  A00 X   1      28.037  99.618 195.8730  0.00  0.00     0.000 OA
ATOM     18   O  A00 X   1      29.988  98.878 195.7200  0.00  0.00     0.000 OA
ENDBRANCH 5 16
BRANCH 1 19
ATOM     19  O4  A00 X   2      27.990 101.568 193.4670  0.00  0.00     0.000 O
BRANCH 19 23
ATOM     20  C1  A00 X   2      24.759 102.505 190.8110  0.00  0.00     0.000 C
ATOM     21  C2  A00 X   2      26.067 103.320 190.6610  0.00  0.00     0.000 C
ATOM     22  C3  A00 X   2      27.244 102.602 191.3550  0.00  0.00     0.000 C
ATOM     23  C4  A00 X   2      26.898 102.289 192.8280  0.00  0.00     0.000 C
ATOM     24  C5  A00 X   2      25.566 101.491 192.8430  0.00  0.00     0.000 C
ATOM     25  O5  A00 X   2      24.528 102.301 192.2310  0.00  0.00     0.000 O
ATOM     26   O  A00 X   2      28.444 103.361 191.1290  0.00  0.00     0.000 O
ATOM     28  HD  A00 X   2      28.082 104.105 191.3840  0.00  0.00     0.000 HD
BRANCH 21 30
ATOM     28   N  A00 X   2      25.254 104.486 190.3030  0.00  0.00     0.000 N
ATOM     30  HD  A00 X   2      26.067 104.665 190.0660  0.00  0.00     0.000 HD
ATOM     30   O  A00 X   2      26.480 105.796 188.8070  0.00  0.00     0.000 OA
ATOM     31   S  A00 X   2      25.969 105.885 190.1290  0.00  0.00     0.000 S
ATOM     32   O  A00 X   2      24.911 106.831 190.3050  0.00  0.00     0.000 OA
ATOM     33   O  A00 X   2      26.926 106.006 191.1880  0.00  0.00     0.000 OA
ENDBRANCH 21 30
BRANCH 24 34
ATOM     34   C  A00 X   2      25.116 100.856 194.1800  0.00  0.00     0.000 C
ATOM     35   O  A00 X   2      22.092 101.803 195.9740  0.00  0.00     0.000 OA
ATOM     36   O  A00 X   2      24.103 101.654 194.8240  0.00  0.00     0.000 O
ATOM     37   O  A00 X   2      22.121 101.077 193.7230  0.00  0.00     0.000 OA
ATOM     38   S  A00 X   2      22.713 100.945 195.0190  0.00  0.00     0.000 S
ATOM     39   O  A00 X   2      22.997  99.621 195.4870  0.00  0.00     0.000 OA
ENDBRANCH 24 34
BRANCH 20 40
ATOM     40  O4  A00 X   3      25.015 101.242 190.1800  0.00  0.00     0.000 O
BRANCH 40 44
ATOM     41  C1  A00 X   3      24.722  97.636 190.3700  0.00  0.00     0.000 C
ATOM     42  C2  A00 X   3      25.414  98.404 189.2230  0.00  0.00     0.000 C
ATOM     43  C3  A00 X   3      24.494  99.521 188.6680  0.00  0.00     0.000 C
ATOM     44  C4  A00 X   3      23.902 100.440 189.7300  0.00  0.00     0.000 C
ATOM     45  C5  A00 X   3      23.221  99.596 190.8430  0.00  0.00     0.000 C
ATOM     46  O5  A00 X   3      24.121  98.548 191.3300  0.00  0.00     0.000 O
ATOM     47   O  A00 X   3      24.996 100.242 187.5440  0.00  0.00     0.000 O
ATOM     49  HD  A00 X   3      24.634 100.913 187.9550  0.00  0.00     0.000 HD
BRANCH 42 49
ATOM     49   O  A00 X   3      26.641  98.947 189.7570  0.00  0.00     0.000 O
ATOM     50   O  A00 X   3      28.413 100.341 188.9540  0.00  0.00     0.000 OA
ATOM     51   O  A00 X   3      27.545  98.665 187.5300  0.00  0.00     0.000 OA
ATOM     52   O  A00 X   3      28.766  97.999 189.4410  0.00  0.00     0.000 OA
ATOM     53   S  A00 X   3      27.926  99.000 188.8800  0.00  0.00     0.000 S
ENDBRANCH 42 49
BRANCH 45 54
ATOM     54   C  A00 X   3      21.856  99.059 190.3940  0.00  0.00     0.000 C
ATOM     55   O  A00 X   3      21.579  98.982 189.2150  0.00  0.00     0.000 OA
ATOM     56   O  A00 X   3      21.025  98.700 191.2140  0.00  0.00     0.000 OA
ENDBRANCH 45 54
BRANCH 41 57
ATOM     57  O4  A00 X   4      23.814  96.630 189.8670  0.00  0.00     0.000 O
BRANCH 57 61
ATOM     58  C1  A00 X   4      22.316  92.922 191.4930  0.00  0.00     0.000 C
ATOM     59  C2  A00 X   4      21.697  94.252 191.9890  0.00  0.00     0.000 C
ATOM     60  C3  A00 X   4      22.044  95.462 191.0970  0.00  0.00     0.000 C
ATOM     61  C4  A00 X   4      23.553  95.523 190.7760  0.00  0.00     0.000 C
ATOM     62  C5  A00 X   4      23.908  94.177 190.0970  0.00  0.00     0.000 C
ATOM     63  O5  A00 X   4      23.676  93.094 191.0350  0.00  0.00     0.000 O
BRANCH 59 66
ATOM     64   N  A00 X   4      22.205  94.603 193.3280  0.00  0.00     0.000 N
ATOM     66  HD  A00 X   4      22.996  94.322 193.5420  0.00  0.00     0.000 HD
ATOM     66   O  A00 X   4      20.577  93.077 194.2350  0.00  0.00     0.000 OA
ATOM     67   S  A00 X   4      21.294  94.260 194.5970  0.00  0.00     0.000 S
ATOM     68   O  A00 X   4      22.303  94.086 195.6000  0.00  0.00     0.000 OA
ATOM     69   O  A00 X   4      20.552  95.483 194.7140  0.00  0.00     0.000 OA
ENDBRANCH 59 66
BRANCH 62 70
ATOM     70   C  A00 X   4      25.370  94.088 189.5970  0.00  0.00     0.000 C
ATOM     71   O  A00 X   4      28.330  93.086 191.4240  0.00  0.00     0.000 OA
ATOM     72   O  A00 X   4      27.931  94.964 190.0610  0.00  0.00     0.000 OA
ATOM     73   O  A00 X   4      26.169  93.412 190.5810  0.00  0.00     0.000 O
ATOM     74   O  A00 X   4      26.985  94.883 192.3060  0.00  0.00     0.000 OA
ATOM     75   S  A00 X   4      27.421  94.164 191.1520  0.00  0.00     0.000 S
ENDBRANCH 62 70
ENDBRANCH 57 61
ENDBRANCH 41 57
ENDBRANCH 40 44
ENDBRANCH 20 40
ENDBRANCH 19 23
ENDBRANCH 1 19
TORSDOF 14
ENDMDL
MODEL 75
REMARK VINA RESULT:      -0.3     37.298     42.591
ROOT
ATOM      1  C1  A00 X   1     197.317  61.707  63.6430  0.00  0.00     0.000 C
ATOM      2  C2  A00 X   1     196.911  62.032  65.1050  0.00  0.00     0.000 C
ATOM      3  C3  A00 X   1     195.875  61.062  65.7630  0.00  0.00     0.000 C
ATOM      4  C4  A00 X   1     195.112  60.134  64.7830  0.00  0.00     0.000 C
ATOM      5  C5  A00 X   1     195.097  60.687  63.3580  0.00  0.00     0.000 C
ATOM      6  O5  A00 X   1     196.487  60.730  62.9660  0.00  0.00     0.000 O
ATOM      7   O  A00 X   1     194.887  61.838  66.4380  0.00  0.00     0.000 O
ATOM      9  HD  A00 X   1     194.474  61.191  66.0370  0.00  0.00     0.000 HD
ATOM      9   O  A00 X   1     195.658  58.815  64.7830  0.00  0.00     0.000 O
ATOM     11  HD  A00 X   1     195.244  58.168  64.3820  0.00  0.00     0.000 HD
ENDROOT
BRANCH 2 11
ATOM     11   O  A00 X   1     198.113  62.045  65.9010  0.00  0.00     0.000 O
ATOM     12   O  A00 X   1     198.089  62.641  68.2270  0.00  0.00     0.000 OA
ATOM     13   O  A00 X   1     197.475  64.307  66.5650  0.00  0.00     0.000 OA
ATOM     14   O  A00 X   1     199.718  63.529  66.7200  0.00  0.00     0.000 OA
ATOM     15   S  A00 X   1     198.331  63.211  66.9260  0.00  0.00     0.000 S
ENDBRANCH 2 11
BRANCH 5 16
ATOM     16   C  A00 X   1     194.371  62.026  63.1910  0.00  0.00     0.000 C
ATOM     17   O  A00 X   1     194.486  62.622  62.1390  0.00  0.00     0.000 OA
ATOM     18   O  A00 X   1     193.682  62.508  64.0680  0.00  0.00     0.000 OA
ENDBRANCH 5 16
BRANCH 1 19
ATOM     19  O4  A00 X   2     197.501  62.895  62.8340  0.00  0.00     0.000 O
BRANCH 19 23
ATOM     20  C1  A00 X   2     200.799  61.258  60.6410  0.00  0.00     0.000 C
ATOM     21  C2  A00 X   2     201.125  62.199  61.8260  0.00  0.00     0.000 C
ATOM     22  C3  A00 X   2     199.906  62.350  62.7590  0.00  0.00     0.000 C
ATOM     23  C4  A00 X   2     198.662  62.801  61.9600  0.00  0.00     0.000 C
ATOM     24  C5  A00 X   2     198.454  61.793  60.7970  0.00  0.00     0.000 C
ATOM     25  O5  A00 X   2     199.637  61.799  59.9560  0.00  0.00     0.000 O
ATOM     26   O  A00 X   2     200.280  63.175  63.8760  0.00  0.00     0.000 O
ATOM     28  HD  A00 X   2     200.613  63.795  63.3720  0.00  0.00     0.000 HD
BRANCH 21 30
ATOM     28   N  A00 X   2     202.281  62.689  61.0680  0.00  0.00     0.000 N
ATOM     30  HD  A00 X   2     202.395  62.938  61.8900  0.00  0.00     0.000 HD
ATOM     30   O  A00 X   2     203.956  63.268  62.5910  0.00  0.00     0.000 OA
ATOM     31   S  A00 X   2     203.107  63.906  61.6480  0.00  0.00     0.000 S
ATOM     32   O  A00 X   2     203.772  64.441  60.5000  0.00  0.00     0.000 OA
ATOM     33   O  A00 X   2     202.162  64.853  62.1610  0.00  0.00     0.000 OA
ENDBRANCH 21 30
BRANCH 24 34
ATOM     34   C  A00 X   2     197.142  61.885  59.9830  0.00  0.00     0.000 C
ATOM     35   O  A00 X   2     196.992  62.728  56.4440  0.00  0.00     0.000 OA
ATOM     36   O  A00 X   2     197.351  62.570  58.7320  0.00  0.00     0.000 O
ATOM     37   O  A00 X   2     198.272  60.945  57.3250  0.00  0.00     0.000 OA
ATOM     38   S  A00 X   2     197.071  61.714  57.4430  0.00  0.00     0.000 S
ATOM     39   O  A00 X   2     195.850  61.005  57.6850  0.00  0.00     0.000 OA
ENDBRANCH 24 34
BRANCH 20 40
ATOM     40  O4  A00 X   3     200.462  59.994  61.2300  0.00  0.00     0.000 O
BRANCH 40 44
ATOM     41  C1  A00 X   3     198.203  57.163  61.2580  0.00  0.00     0.000 C
ATOM     42  C2  A00 X   3     199.389  57.352  62.2290  0.00  0.00     0.000 C
ATOM     43  C3  A00 X   3     200.695  57.667  61.4540  0.00  0.00     0.000 C
ATOM     44  C4  A00 X   3     200.571  58.793  60.4360  0.00  0.00     0.000 C
ATOM     45  C5  A00 X   3     199.361  58.529  59.4950  0.00  0.00     0.000 C
ATOM     46  O5  A00 X   3     198.155  58.226  60.2680  0.00  0.00     0.000 O
ATOM     47   O  A00 X   3     201.877  57.776  62.2450  0.00  0.00     0.000 O
ATOM     49  HD  A00 X   3     202.050  58.422  61.6950  0.00  0.00     0.000 HD
BRANCH 42 49
ATOM     49   O  A00 X   3     199.035  58.427  63.1260  0.00  0.00     0.000 O
ATOM     50   O  A00 X   3     200.096  59.610  64.9160  0.00  0.00     0.000 OA
ATOM     51   O  A00 X   3     200.365  57.265  64.7810  0.00  0.00     0.000 OA
ATOM     52   O  A00 X   3     198.228  58.126  65.3110  0.00  0.00     0.000 OA
ATOM     53   S  A00 X   3     199.450  58.369  64.6250  0.00  0.00     0.000 S
ENDBRANCH 42 49
BRANCH 45 54
ATOM     54   C  A00 X   3     199.685  57.466  58.4390  0.00  0.00     0.000 C
ATOM     55   O  A00 X   3     200.601  56.687  58.6060  0.00  0.00     0.000 OA
ATOM     56   O  A00 X   3     199.029  57.384  57.4130  0.00  0.00     0.000 OA
ENDBRANCH 45 54
BRANCH 41 57
ATOM     57  O4  A00 X   4     198.182  55.833  60.6930  0.00  0.00     0.000 O
BRANCH 57 61
ATOM     58  C1  A00 X   4     195.029  53.338  59.1200  0.00  0.00     0.000 C
ATOM     59  C2  A00 X   4     195.578  54.485  58.2350  0.00  0.00     0.000 C
ATOM     60  C3  A00 X   4     196.916  55.064  58.7400  0.00  0.00     0.000 C
ATOM     61  C4  A00 X   4     196.874  55.369  60.2520  0.00  0.00     0.000 C
ATOM     62  C5  A00 X   4     196.512  54.037  60.9560  0.00  0.00     0.000 C
ATOM     63  O5  A00 X   4     195.191  53.616  60.5290  0.00  0.00     0.000 O
BRANCH 59 66
ATOM     64   N  A00 X   4     194.651  55.630  58.2100  0.00  0.00     0.000 N
ATOM     66  HD  A00 X   4     194.147  55.752  58.9040  0.00  0.00     0.000 HD
ATOM     66   O  A00 X   4     193.385  54.442  56.5420  0.00  0.00     0.000 OA
ATOM     67   S  A00 X   4     193.665  55.780  56.9600  0.00  0.00     0.000 S
ATOM     68   O  A00 X   4     192.572  56.475  57.5740  0.00  0.00     0.000 OA
ATOM     69   O  A00 X   4     194.471  56.596  56.0970  0.00  0.00     0.000 OA
ENDBRANCH 59 66
BRANCH 62 70
ATOM     70   C  A00 X   4     196.529  54.113  62.5010  0.00  0.00     0.000 C
ATOM     71   O  A00 X   4     193.864  55.094  64.7460  0.00  0.00     0.000 OA
ATOM     72   O  A00 X   4     196.115  55.779  64.6450  0.00  0.00     0.000 OA
ATOM     73   O  A00 X   4     195.190  54.308  62.9810  0.00  0.00     0.000 O
ATOM     74   O  A00 X   4     194.524  56.624  63.0030  0.00  0.00     0.000 OA
ATOM     75   S  A00 X   4     194.907  55.563  63.8780  0.00  0.00     0.000 S
ENDBRANCH 62 70
ENDBRANCH 57 61
ENDBRANCH 41 57
ENDBRANCH 40 44
ENDBRANCH 20 40
ENDBRANCH 19 23
ENDBRANCH 1 19
TORSDOF 14
ENDMDL
MODEL 76
REMARK VINA RESULT:      -0.3     40.365     45.477
ROOT
ATOM      1  C1  A00 X   1     188.317  73.442  54.0610  0.00  0.00     0.000 C
ATOM      2  C2  A00 X   1     187.080  72.614  53.6210  0.00  0.00     0.000 C
ATOM      3  C3  A00 X   1     186.481  72.964  52.2190  0.00  0.00     0.000 C
ATOM      4  C4  A00 X   1     186.948  74.311  51.6100  0.00  0.00     0.000 C
ATOM      5  C5  A00 X   1     187.453  75.283  52.6770  0.00  0.00     0.000 C
ATOM      6  O5  A00 X   1     188.596  74.621  53.2650  0.00  0.00     0.000 O
ATOM      7   O  A00 X   1     185.062  73.042  52.3350  0.00  0.00     0.000 O
ATOM      9  HD  A00 X   1     185.314  73.696  51.8260  0.00  0.00     0.000 HD
ATOM      9   O  A00 X   1     187.958  74.114  50.6210  0.00  0.00     0.000 O
ATOM     11  HD  A00 X   1     188.209  74.768  50.1120  0.00  0.00     0.000 HD
ENDROOT
BRANCH 2 11
ATOM     11   O  A00 X   1     187.456  71.223  53.6370  0.00  0.00     0.000 O
ATOM     12   O  A00 X   1     185.879  69.476  53.1620  0.00  0.00     0.000 OA
ATOM     13   O  A00 X   1     185.550  70.875  55.1250  0.00  0.00     0.000 OA
ATOM     14   O  A00 X   1     187.371  69.347  55.0250  0.00  0.00     0.000 OA
ATOM     15   S  A00 X   1     186.473  70.179  54.2700  0.00  0.00     0.000 S
ENDBRANCH 2 11
BRANCH 5 16
ATOM     16   C  A00 X   1     186.403  75.721  53.7030  0.00  0.00     0.000 C
ATOM     17   O  A00 X   1     186.772  76.320  54.6920  0.00  0.00     0.000 OA
ATOM     18   O  A00 X   1     185.218  75.497  53.5590  0.00  0.00     0.000 OA
ENDBRANCH 5 16
BRANCH 1 19
ATOM     19  O4  A00 X   2     188.313  73.750  55.4760  0.00  0.00     0.000 O
BRANCH 19 23
ATOM     20  C1  A00 X   2     192.557  73.334  55.8940  0.00  0.00     0.000 C
ATOM     21  C2  A00 X   2     191.678  72.123  56.2900  0.00  0.00     0.000 C
ATOM     22  C3  A00 X   2     190.262  72.253  55.6920  0.00  0.00     0.000 C
ATOM     23  C4  A00 X   2     189.629  73.608  56.0830  0.00  0.00     0.000 C
ATOM     24  C5  A00 X   2     190.610  74.732  55.6510  0.00  0.00     0.000 C
ATOM     25  O5  A00 X   2     191.874  74.537  56.3360  0.00  0.00     0.000 O
ATOM     26   O  A00 X   2     189.509  71.076  56.0300  0.00  0.00     0.000 O
ATOM     28  HD  A00 X   2     189.711  71.126  56.8700  0.00  0.00     0.000 HD
BRANCH 21 30
ATOM     28   N  A00 X   2     192.653  71.816  57.3410  0.00  0.00     0.000 N
ATOM     30  HD  A00 X   2     192.158  71.112  57.2450  0.00  0.00     0.000 HD
ATOM     30   O  A00 X   2     192.679  69.502  57.6570  0.00  0.00     0.000 OA
ATOM     31   S  A00 X   2     192.317  70.671  58.3770  0.00  0.00     0.000 S
ATOM     32   O  A00 X   2     193.152  70.972  59.4980  0.00  0.00     0.000 OA
ATOM     33   O  A00 X   2     190.936  70.813  58.7320  0.00  0.00     0.000 OA
ENDBRANCH 21 30
BRANCH 24 34
ATOM     34   C  A00 X   2     190.112  76.195  55.7210  0.00  0.00     0.000 C
ATOM     35   O  A00 X   2     191.563  78.743  57.8810  0.00  0.00     0.000 OA
ATOM     36   O  A00 X   2     190.622  76.865  56.8910  0.00  0.00     0.000 O
ATOM     37   O  A00 X   2     192.799  77.488  56.3020  0.00  0.00     0.000 OA
ATOM     38   S  A00 X   2     191.544  78.107  56.6040  0.00  0.00     0.000 S
ATOM     39   O  A00 X   2     190.905  78.854  55.5630  0.00  0.00     0.000 OA
ENDBRANCH 24 34
BRANCH 20 40
ATOM     40  O4  A00 X   3     192.618  73.317  54.4600  0.00  0.00     0.000 O
BRANCH 40 44
ATOM     41  C1  A00 X   3     192.464  75.194  51.3660  0.00  0.00     0.000 C
ATOM     42  C2  A00 X   3     192.645  73.663  51.4580  0.00  0.00     0.000 C
ATOM     43  C3  A00 X   3     193.798  73.298  52.4290  0.00  0.00     0.000 C
ATOM     44  C4  A00 X   3     193.716  73.974  53.7920  0.00  0.00     0.000 C
ATOM     45  C5  A00 X   3     193.540  75.508  53.6160  0.00  0.00     0.000 C
ATOM     46  O5  A00 X   3     192.449  75.806  52.6850  0.00  0.00     0.000 O
ATOM     47   O  A00 X   3     194.114  71.911  52.5270  0.00  0.00     0.000 O
ATOM     49  HD  A00 X   3     194.214  72.109  53.3640  0.00  0.00     0.000 HD
BRANCH 42 49
ATOM     49   O  A00 X   3     191.386  73.114  51.9050  0.00  0.00     0.000 O
ATOM     50   O  A00 X   3     190.546  70.947  52.4760  0.00  0.00     0.000 OA
ATOM     51   O  A00 X   3     191.956  71.164  50.5910  0.00  0.00     0.000 OA
ATOM     52   O  A00 X   3     189.795  72.115  50.4960  0.00  0.00     0.000 OA
ATOM     53   S  A00 X   3     190.878  71.754  51.3440  0.00  0.00     0.000 S
ENDBRANCH 42 49
BRANCH 45 54
ATOM     54   C  A00 X   3     194.860  76.191  53.2370  0.00  0.00     0.000 C
ATOM     55   O  A00 X   3     195.017  77.380  53.4250  0.00  0.00     0.000 OA
ATOM     56   O  A00 X   3     195.774  75.553  52.7380  0.00  0.00     0.000 OA
ENDBRANCH 45 54
BRANCH 41 57
ATOM     57  O4  A00 X   4     193.413  75.789  50.4530  0.00  0.00     0.000 O
BRANCH 57 61
ATOM     58  C1  A00 X   4     193.378  79.407  48.0970  0.00  0.00     0.000 C
ATOM     59  C2  A00 X   4     193.693  79.511  49.6100  0.00  0.00     0.000 C
ATOM     60  C3  A00 X   4     194.030  78.154  50.2620  0.00  0.00     0.000 C
ATOM     61  C4  A00 X   4     193.004  77.065  49.8820  0.00  0.00     0.000 C
ATOM     62  C5  A00 X   4     193.007  76.985  48.3350  0.00  0.00     0.000 C
ATOM     63  O5  A00 X   4     192.561  78.254  47.7910  0.00  0.00     0.000 O
BRANCH 59 66
ATOM     64   N  A00 X   4     192.547  80.021  50.3840  0.00  0.00     0.000 N
ATOM     66  HD  A00 X   4     191.753  79.856  50.0800  0.00  0.00     0.000 HD
ATOM     66   O  A00 X   4     193.191  82.235  49.6890  0.00  0.00     0.000 OA
ATOM     67   S  A00 X   4     192.522  81.574  50.7650  0.00  0.00     0.000 S
ATOM     68   O  A00 X   4     191.108  81.799  50.8430  0.00  0.00     0.000 OA
ATOM     69   O  A00 X   4     193.182  81.533  52.0390  0.00  0.00     0.000 OA
ENDBRANCH 59 66
BRANCH 62 70
ATOM     70   C  A00 X   4     192.112  75.862  47.7580  0.00  0.00     0.000 C
ATOM     71   O  A00 X   4     188.568  75.945  47.0240  0.00  0.00     0.000 OA
ATOM     72   O  A00 X   4     189.851  74.372  48.2160  0.00  0.00     0.000 OA
ATOM     73   O  A00 X   4     190.833  76.410  47.4000  0.00  0.00     0.000 O
ATOM     74   O  A00 X   4     189.297  76.506  49.2530  0.00  0.00     0.000 OA
ATOM     75   S  A00 X   4     189.555  75.778  48.0530  0.00  0.00     0.000 S
ENDBRANCH 62 70
ENDBRANCH 57 61
ENDBRANCH 41 57
ENDBRANCH 40 44
ENDBRANCH 20 40
ENDBRANCH 19 23
ENDBRANCH 1 19
TORSDOF 14
ENDMDL
MODEL 77
REMARK VINA RESULT:      -0.3    136.712    141.330
ROOT
ATOM      1  C1  A00 X   1     110.229  91.469 188.5480  0.00  0.00     0.000 C
ATOM      2  C2  A00 X   1     109.161  90.736 189.4030  0.00  0.00     0.000 C
ATOM      3  C3  A00 X   1     108.367  89.597 188.6830  0.00  0.00     0.000 C
ATOM      4  C4  A00 X   1     108.473  89.582 187.1370  0.00  0.00     0.000 C
ATOM      5  C5  A00 X   1     108.860  90.949 186.5720  0.00  0.00     0.000 C
ATOM      6  O5  A00 X   1     110.170  91.216 187.1220  0.00  0.00     0.000 O
ATOM      7   O  A00 X   1     106.982  89.738 188.9930  0.00  0.00     0.000 O
ATOM      9  HD  A00 X   1     107.037  89.536 188.1520  0.00  0.00     0.000 HD
ATOM      9   O  A00 X   1     109.400  88.594 186.6860  0.00  0.00     0.000 O
ATOM     11  HD  A00 X   1     109.454  88.392 185.8460  0.00  0.00     0.000 HD
ENDROOT
BRANCH 2 11
ATOM     11   O  A00 X   1     109.825  90.188 190.5580  0.00  0.00     0.000 O
ATOM     12   O  A00 X   1     108.618  89.060 192.3010  0.00  0.00     0.000 OA
ATOM     13   O  A00 X   1     108.199  91.422 191.9000  0.00  0.00     0.000 OA
ATOM     14   O  A00 X   1     110.285  90.702 192.7890  0.00  0.00     0.000 OA
ATOM     15   S  A00 X   1     109.158  90.353 191.9670  0.00  0.00     0.000 S
ENDBRANCH 2 11
BRANCH 5 16
ATOM     16   C  A00 X   1     107.847  92.068 186.8310  0.00  0.00     0.000 C
ATOM     17   O  A00 X   1     108.171  93.213 186.5930  0.00  0.00     0.000 OA
ATOM     18   O  A00 X   1     106.731  91.850 187.2600  0.00  0.00     0.000 OA
ENDBRANCH 5 16
BRANCH 1 19
ATOM     19  O4  A00 X   2     110.297  92.888 188.8310  0.00  0.00     0.000 O
BRANCH 19 23
ATOM     20  C1  A00 X   2     114.553  93.086 188.3680  0.00  0.00     0.000 C
ATOM     21  C2  A00 X   2     113.996  92.968 189.8070  0.00  0.00     0.000 C
ATOM     22  C3  A00 X   2     112.533  92.478 189.7910  0.00  0.00     0.000 C
ATOM     23  C4  A00 X   2     111.667  93.381 188.8840  0.00  0.00     0.000 C
ATOM     24  C5  A00 X   2     112.338  93.432 187.4850  0.00  0.00     0.000 C
ATOM     25  O5  A00 X   2     113.676  93.977 187.6280  0.00  0.00     0.000 O
ATOM     26   O  A00 X   2     112.085  92.319 191.1480  0.00  0.00     0.000 O
ATOM     28  HD  A00 X   2     112.353  93.108 191.3820  0.00  0.00     0.000 HD
BRANCH 21 30
ATOM     28   N  A00 X   2     115.104  93.812 190.2640  0.00  0.00     0.000 N
ATOM     30  HD  A00 X   2     114.768  93.436 190.9690  0.00  0.00     0.000 HD
ATOM     30   O  A00 X   2     115.661  93.165 192.4390  0.00  0.00     0.000 OA
ATOM     31   S  A00 X   2     115.118  94.294 191.7700  0.00  0.00     0.000 S
ATOM     32   O  A00 X   2     115.964  95.447 191.7480  0.00  0.00     0.000 OA
ATOM     33   O  A00 X   2     113.777  94.667 192.1080  0.00  0.00     0.000 OA
ENDBRANCH 21 30
BRANCH 24 34
ATOM     34   C  A00 X   2     111.549  94.085 186.3250  0.00  0.00     0.000 C
ATOM     35   O  A00 X   2     112.623  97.082 184.5590  0.00  0.00     0.000 OA
ATOM     36   O  A00 X   2     112.014  95.424 186.0650  0.00  0.00     0.000 O
ATOM     37   O  A00 X   2     113.941  95.131 184.7720  0.00  0.00     0.000 OA
ATOM     38   S  A00 X   2     112.618  95.658 184.6320  0.00  0.00     0.000 S
ATOM     39   O  A00 X   2     111.738  95.006 183.7100  0.00  0.00     0.000 OA
ENDBRANCH 24 34
BRANCH 20 40
ATOM     40  O4  A00 X   3     114.476  91.765 187.8120  0.00  0.00     0.000 O
BRANCH 40 44
ATOM     41  C1  A00 X   3     113.615  89.696 184.9660  0.00  0.00     0.000 C
ATOM     42  C2  A00 X   3     114.125  89.161 186.3210  0.00  0.00     0.000 C
ATOM     43  C3  A00 X   3     115.421  89.892 186.7550  0.00  0.00     0.000 C
ATOM     44  C4  A00 X   3     115.336  91.413 186.7070  0.00  0.00     0.000 C
ATOM     45  C5  A00 X   3     114.822  91.874 185.3150  0.00  0.00     0.000 C
ATOM     46  O5  A00 X   3     113.604  91.150 184.9410  0.00  0.00     0.000 O
ATOM     47   O  A00 X   3     116.033  89.419 187.9530  0.00  0.00     0.000 O
ATOM     49  HD  A00 X   3     116.173  90.264 188.0820  0.00  0.00     0.000 HD
BRANCH 42 49
ATOM     49   O  A00 X   3     113.063  89.355 187.2800  0.00  0.00     0.000 O
ATOM     50   O  A00 X   3     112.765  89.010 189.6300  0.00  0.00     0.000 OA
ATOM     51   O  A00 X   3     113.902  87.364 188.3700  0.00  0.00     0.000 OA
ATOM     52   O  A00 X   3     111.589  87.673 187.9940  0.00  0.00     0.000 OA
ATOM     53   S  A00 X   3     112.803  88.297 188.3920  0.00  0.00     0.000 S
ENDBRANCH 42 49
BRANCH 45 54
ATOM     54   C  A00 X   3     115.921  91.795 184.2490  0.00  0.00     0.000 C
ATOM     55   O  A00 X   3     116.891  91.082 184.4110  0.00  0.00     0.000 OA
ATOM     56   O  A00 X   3     115.842  92.447 183.2190  0.00  0.00     0.000 OA
ENDBRANCH 45 54
BRANCH 41 57
ATOM     57  O4  A00 X   4     114.319  89.096 183.8550  0.00  0.00     0.000 O
BRANCH 57 61
ATOM     58  C1  A00 X   4     113.279  88.405 179.7220  0.00  0.00     0.000 C
ATOM     59  C2  A00 X   4     113.709  89.831 180.1500  0.00  0.00     0.000 C
ATOM     60  C3  A00 X   4     114.391  89.878 181.5330  0.00  0.00     0.000 C
ATOM     61  C4  A00 X   4     113.592  89.090 182.5930  0.00  0.00     0.000 C
ATOM     62  C5  A00 X   4     113.463  87.643 182.0560  0.00  0.00     0.000 C
ATOM     63  O5  A00 X   4     112.704  87.660 180.8200  0.00  0.00     0.000 O
BRANCH 59 66
ATOM     64   N  A00 X   4     112.536  90.716 180.2670  0.00  0.00     0.000 N
ATOM     66  HD  A00 X   4     111.777  90.350 180.4670  0.00  0.00     0.000 HD
ATOM     66   O  A00 X   4     112.643  91.005 177.8790  0.00  0.00     0.000 OA
ATOM     67   S  A00 X   4     112.206  91.699 179.0490  0.00  0.00     0.000 S
ATOM     68   O  A00 X   4     110.785  91.826 179.1970  0.00  0.00     0.000 OA
ATOM     69   O  A00 X   4     112.945  92.861 179.4540  0.00  0.00     0.000 OA
ENDBRANCH 59 66
BRANCH 62 70
ATOM     70   C  A00 X   4     112.780  86.663 183.0390  0.00  0.00     0.000 C
ATOM     71   O  A00 X   4     109.246  86.035 183.5180  0.00  0.00     0.000 OA
ATOM     72   O  A00 X   4     110.951  86.482 185.0800  0.00  0.00     0.000 OA
ATOM     73   O  A00 X   4     111.384  86.561 182.7150  0.00  0.00     0.000 O
ATOM     74   O  A00 X   4     110.054  88.298 183.7250  0.00  0.00     0.000 OA
ATOM     75   S  A00 X   4     110.344  86.905 183.8380  0.00  0.00     0.000 S
ENDBRANCH 62 70
ENDBRANCH 57 61
ENDBRANCH 41 57
ENDBRANCH 40 44
ENDBRANCH 20 40
ENDBRANCH 19 23
ENDBRANCH 1 19
TORSDOF 14
ENDMDL
MODEL 78
REMARK VINA RESULT:      -0.3    125.465    130.623
ROOT
ATOM      1  C1  A00 X   1      33.175  72.126  67.5250  0.00  0.00     0.000 C
ATOM      2  C2  A00 X   1      33.984  72.206  66.2030  0.00  0.00     0.000 C
ATOM      3  C3  A00 X   1      33.249  72.856  64.9850  0.00  0.00     0.000 C
ATOM      4  C4  A00 X   1      31.712  73.002  65.1320  0.00  0.00     0.000 C
ATOM      5  C5  A00 X   1      31.135  72.024  66.1550  0.00  0.00     0.000 C
ATOM      6  O5  A00 X   1      31.756  72.394  67.4070  0.00  0.00     0.000 O
ATOM      7   O  A00 X   1      33.471  72.048  63.8320  0.00  0.00     0.000 O
ATOM      9  HD  A00 X   1      32.641  72.295  63.8150  0.00  0.00     0.000 HD
ATOM      9   O  A00 X   1      31.346  74.336  65.4800  0.00  0.00     0.000 O
ATOM     11  HD  A00 X   1      30.516  74.584  65.4630  0.00  0.00     0.000 HD
ENDROOT
BRANCH 2 11
ATOM     11   O  A00 X   1      35.192  72.945  66.4720  0.00  0.00     0.000 O
ATOM     12   O  A00 X   1      36.708  73.581  64.7220  0.00  0.00     0.000 OA
ATOM     13   O  A00 X   1      36.360  71.221  65.1960  0.00  0.00     0.000 OA
ATOM     14   O  A00 X   1      37.484  72.611  66.7640  0.00  0.00     0.000 OA
ATOM     15   S  A00 X   1      36.505  72.554  65.7120  0.00  0.00     0.000 S
ENDBRANCH 2 11
BRANCH 5 16
ATOM     16   C  A00 X   1      31.303  70.542  65.8020  0.00  0.00     0.000 C
ATOM     17   O  A00 X   1      31.065  69.711  66.6540  0.00  0.00     0.000 OA
ATOM     18   O  A00 X   1      31.658  70.171  64.7010  0.00  0.00     0.000 OA
ENDBRANCH 5 16
BRANCH 1 19
ATOM     19  O4  A00 X   2      33.423  70.904  68.2620  0.00  0.00     0.000 O
BRANCH 19 23
ATOM     20  C1  A00 X   2      33.393  72.847  72.0810  0.00  0.00     0.000 C
ATOM     21  C2  A00 X   2      34.771  72.540  71.4460  0.00  0.00     0.000 C
ATOM     22  C3  A00 X   2      34.629  72.255  69.9360  0.00  0.00     0.000 C
ATOM     23  C4  A00 X   2      33.592  71.136  69.6890  0.00  0.00     0.000 C
ATOM     24  C5  A00 X   2      32.269  71.553  70.3870  0.00  0.00     0.000 C
ATOM     25  O5  A00 X   2      32.521  71.718  71.8070  0.00  0.00     0.000 O
ATOM     26   O  A00 X   2      35.939  72.045  69.3820  0.00  0.00     0.000 O
ATOM     28  HD  A00 X   2      36.158  71.467  69.9890  0.00  0.00     0.000 HD
BRANCH 21 30
ATOM     28   N  A00 X   2      35.296  72.303  72.7940  0.00  0.00     0.000 N
ATOM     30  HD  A00 X   2      35.980  72.397  72.2720  0.00  0.00     0.000 HD
ATOM     30   O  A00 X   2      37.548  72.926  72.8180  0.00  0.00     0.000 OA
ATOM     31   S  A00 X   2      36.768  71.746  72.9480  0.00  0.00     0.000 S
ATOM     32   O  A00 X   2      36.773  71.160  74.2530  0.00  0.00     0.000 OA
ATOM     33   O  A00 X   2      36.945  70.736  71.9480  0.00  0.00     0.000 OA
ENDBRANCH 21 30
BRANCH 24 34
ATOM     34   C  A00 X   2      31.001  70.715  70.1000  0.00  0.00     0.000 C
ATOM     35   O  A00 X   2      30.749  67.130  70.6870  0.00  0.00     0.000 OA
ATOM     36   O  A00 X   2      31.299  69.304  70.0880  0.00  0.00     0.000 O
ATOM     37   O  A00 X   2      31.352  68.702  72.3480  0.00  0.00     0.000 OA
ATOM     38   S  A00 X   2      30.558  68.454  71.1840  0.00  0.00     0.000 S
ATOM     39   O  A00 X   2      29.199  68.906  71.1980  0.00  0.00     0.000 OA
ENDBRANCH 24 34
BRANCH 20 40
ATOM     40  O4  A00 X   3      32.902  74.010  71.3980  0.00  0.00     0.000 O
BRANCH 40 44
ATOM     41  C1  A00 X   3      30.062  75.533  69.7420  0.00  0.00     0.000 C
ATOM     42  C2  A00 X   3      31.462  76.174  69.8570  0.00  0.00     0.000 C
ATOM     43  C3  A00 X   3      31.960  76.161  71.3250  0.00  0.00     0.000 C
ATOM     44  C4  A00 X   3      31.866  74.805  72.0140  0.00  0.00     0.000 C
ATOM     45  C5  A00 X   3      30.431  74.229  71.8600  0.00  0.00     0.000 C
ATOM     46  O5  A00 X   3      29.998  74.270  70.4610  0.00  0.00     0.000 O
ATOM     47   O  A00 X   3      33.209  76.807  71.5650  0.00  0.00     0.000 O
ATOM     49  HD  A00 X   3      33.324  76.138  72.1030  0.00  0.00     0.000 HD
BRANCH 42 49
ATOM     49   O  A00 X   3      32.344  75.423  68.9940  0.00  0.00     0.000 O
ATOM     50   O  A00 X   3      34.672  75.460  68.4400  0.00  0.00     0.000 OA
ATOM     51   O  A00 X   3      33.515  77.511  68.6440  0.00  0.00     0.000 OA
ATOM     52   O  A00 X   3      32.978  76.090  66.8340  0.00  0.00     0.000 OA
ATOM     53   S  A00 X   3      33.449  76.150  68.1740  0.00  0.00     0.000 S
ENDBRANCH 42 49
BRANCH 45 54
ATOM     54   C  A00 X   3      29.442  74.904  72.8170  0.00  0.00     0.000 C
ATOM     55   O  A00 X   3      28.376  74.383  73.0760  0.00  0.00     0.000 OA
ATOM     56   O  A00 X   3      29.708  75.978  73.3360  0.00  0.00     0.000 OA
ENDBRANCH 45 54
BRANCH 41 57
ATOM     57  O4  A00 X   4      29.017  76.465  70.0990  0.00  0.00     0.000 O
BRANCH 57 61
ATOM     58  C1  A00 X   4      24.893  76.886  68.8930  0.00  0.00     0.000 C
ATOM     59  C2  A00 X   4      25.256  75.787  69.9230  0.00  0.00     0.000 C
ATOM     60  C3  A00 X   4      26.659  75.961  70.5400  0.00  0.00     0.000 C
ATOM     61  C4  A00 X   4      27.731  76.225  69.4610  0.00  0.00     0.000 C
ATOM     62  C5  A00 X   4      27.271  77.487  68.6890  0.00  0.00     0.000 C
ATOM     63  O5  A00 X   4      26.008  77.212  68.0320  0.00  0.00     0.000 O
BRANCH 59 66
ATOM     64   N  A00 X   4      25.275  74.466  69.2680  0.00  0.00     0.000 N
ATOM     66  HD  A00 X   4      25.462  74.441  68.4230  0.00  0.00     0.000 HD
ATOM     66   O  A00 X   4      22.882  74.413  69.5290  0.00  0.00     0.000 OA
ATOM     67   S  A00 X   4      23.995  73.521  69.4310  0.00  0.00     0.000 S
ATOM     68   O  A00 X   4      24.075  72.766  68.2150  0.00  0.00     0.000 OA
ATOM     69   O  A00 X   4      24.370  72.787  70.6060  0.00  0.00     0.000 OA
ENDBRANCH 59 66
BRANCH 62 70
ATOM     70   C  A00 X   4      28.281  77.981  67.6260  0.00  0.00     0.000 C
ATOM     71   O  A00 X   4      28.440  77.157  64.1040  0.00  0.00     0.000 OA
ATOM     72   O  A00 X   4      30.117  77.154  65.7580  0.00  0.00     0.000 OA
ATOM     73   O  A00 X   4      27.821  77.598  66.3200  0.00  0.00     0.000 O
ATOM     74   O  A00 X   4      28.469  75.359  65.7100  0.00  0.00     0.000 OA
ATOM     75   S  A00 X   4      28.774  76.726  65.4320  0.00  0.00     0.000 S
ENDBRANCH 62 70
ENDBRANCH 57 61
ENDBRANCH 41 57
ENDBRANCH 40 44
ENDBRANCH 20 40
ENDBRANCH 19 23
ENDBRANCH 1 19
TORSDOF 14
ENDMDL
MODEL 79
REMARK VINA RESULT:      -0.3    121.200    126.367
ROOT
ATOM      1  C1  A00 X   1      38.953  75.789  69.3210  0.00  0.00     0.000 C
ATOM      2  C2  A00 X   1      40.023  76.512  68.4600  0.00  0.00     0.000 C
ATOM      3  C3  A00 X   1      39.494  77.630  67.5020  0.00  0.00     0.000 C
ATOM      4  C4  A00 X   1      37.963  77.630  67.2560  0.00  0.00     0.000 C
ATOM      5  C5  A00 X   1      37.334  76.265  67.5330  0.00  0.00     0.000 C
ATOM      6  O5  A00 X   1      37.576  76.026  68.9380  0.00  0.00     0.000 O
ATOM      7   O  A00 X   1      40.108  77.467  66.2250  0.00  0.00     0.000 O
ATOM      9  HD  A00 X   1      39.276  77.661  66.0850  0.00  0.00     0.000 HD
ATOM      9   O  A00 X   1      37.309  78.629  68.0380  0.00  0.00     0.000 O
ATOM     11  HD  A00 X   1      36.477  78.824  67.8980  0.00  0.00     0.000 HD
ENDROOT
BRANCH 2 11
ATOM     11   O  A00 X   1      40.995  77.084  69.3560  0.00  0.00     0.000 O
ATOM     12   O  A00 X   1      42.967  78.194  68.5510  0.00  0.00     0.000 OA
ATOM     13   O  A00 X   1      42.674  75.820  68.1110  0.00  0.00     0.000 OA
ATOM     14   O  A00 X   1      43.062  76.595  70.3260  0.00  0.00     0.000 OA
ATOM     15   S  A00 X   1      42.519  76.911  69.0320  0.00  0.00     0.000 S
ENDBRANCH 2 11
BRANCH 5 16
ATOM     16   C  A00 X   1      37.822  75.131  66.6260  0.00  0.00     0.000 C
ATOM     17   O  A00 X   1      37.524  73.989  66.9110  0.00  0.00     0.000 OA
ATOM     18   O  A00 X   1      38.489  75.333  65.6300  0.00  0.00     0.000 OA
ENDBRANCH 5 16
BRANCH 1 19
ATOM     19  O4  A00 X   2      39.222  74.375  69.4790  0.00  0.00     0.000 O
BRANCH 19 23
ATOM     20  C1  A00 X   2      37.832  74.257  73.5310  0.00  0.00     0.000 C
ATOM     21  C2  A00 X   2      39.360  74.351  73.3020  0.00  0.00     0.000 C
ATOM     22  C3  A00 X   2      39.672  74.815  71.8640  0.00  0.00     0.000 C
ATOM     23  C4  A00 X   2      38.966  73.905  70.8340  0.00  0.00     0.000 C
ATOM     24  C5  A00 X   2      37.453  73.880  71.1810  0.00  0.00     0.000 C
ATOM     25  O5  A00 X   2      37.290  73.359  72.5260  0.00  0.00     0.000 O
ATOM     26   O  A00 X   2      41.097  74.952  71.7240  0.00  0.00     0.000 O
ATOM     28  HD  A00 X   2      41.255  74.166  72.0490  0.00  0.00     0.000 HD
BRANCH 21 30
ATOM     28   N  A00 X   2      39.551  73.521  74.4960  0.00  0.00     0.000 N
ATOM     30  HD  A00 X   2      40.317  73.885  74.3170  0.00  0.00     0.000 HD
ATOM     30   O  A00 X   2      41.558  74.157  75.5090  0.00  0.00     0.000 OA
ATOM     31   S  A00 X   2      41.011  73.026  74.8480  0.00  0.00     0.000 S
ATOM     32   O  A00 X   2      40.789  71.887  75.6840  0.00  0.00     0.000 OA
ATOM     33   O  A00 X   2      41.631  72.628  73.6200  0.00  0.00     0.000 OA
ENDBRANCH 21 30
BRANCH 24 34
ATOM     34   C  A00 X   2      36.486  73.226  70.1670  0.00  0.00     0.000 C
ATOM     35   O  A00 X   2      36.737  69.771  69.0450  0.00  0.00     0.000 OA
ATOM     36   O  A00 X   2      37.026  71.993  69.6500  0.00  0.00     0.000 O
ATOM     37   O  A00 X   2      36.568  70.415  71.3140  0.00  0.00     0.000 OA
ATOM     38   S  A00 X   2      36.181  70.705  69.9670  0.00  0.00     0.000 S
ATOM     39   O  A00 X   2      34.812  71.051  69.7310  0.00  0.00     0.000 OA
ENDBRANCH 24 34
BRANCH 20 40
ATOM     40  O4  A00 X   3      37.325  75.582  73.3130  0.00  0.00     0.000 O
BRANCH 40 44
ATOM     41  C1  A00 X   3      34.764  77.601  71.7350  0.00  0.00     0.000 C
ATOM     42  C2  A00 X   3      35.957  78.163  72.5380  0.00  0.00     0.000 C
ATOM     43  C3  A00 X   3      36.069  77.472  73.9220  0.00  0.00     0.000 C
ATOM     44  C4  A00 X   3      36.046  75.950  73.8730  0.00  0.00     0.000 C
ATOM     45  C5  A00 X   3      34.817  75.462  73.0540  0.00  0.00     0.000 C
ATOM     46  O5  A00 X   3      34.746  76.147  71.7620  0.00  0.00     0.000 O
ATOM     47   O  A00 X   3      37.086  77.973  74.7880  0.00  0.00     0.000 O
ATOM     49  HD  A00 X   3      37.179  77.134  74.9800  0.00  0.00     0.000 HD
BRANCH 42 49
ATOM     49   O  A00 X   3      37.143  77.946  71.7430  0.00  0.00     0.000 O
ATOM     50   O  A00 X   3      39.495  78.310  72.0030  0.00  0.00     0.000 OA
ATOM     51   O  A00 X   3      37.992  79.976  72.7500  0.00  0.00     0.000 OA
ATOM     52   O  A00 X   3      38.182  79.590  70.4260  0.00  0.00     0.000 OA
ATOM     53   S  A00 X   3      38.280  79.009  71.7200  0.00  0.00     0.000 S
ENDBRANCH 42 49
BRANCH 45 54
ATOM     54   C  A00 X   3      33.519  75.564  73.8640  0.00  0.00     0.000 C
ATOM     55   O  A00 X   3      32.530  74.946  73.5270  0.00  0.00     0.000 OA
ATOM     56   O  A00 X   3      33.456  76.268  74.8600  0.00  0.00     0.000 OA
ENDBRANCH 45 54
BRANCH 41 57
ATOM     57  O4  A00 X   4      33.517  78.212  72.1340  0.00  0.00     0.000 O
BRANCH 57 61
ATOM     58  C1  A00 X   4      29.793  78.949  70.0770  0.00  0.00     0.000 C
ATOM     59  C2  A00 X   4      30.090  77.515  70.5830  0.00  0.00     0.000 C
ATOM     60  C3  A00 X   4      31.250  77.449  71.5970  0.00  0.00     0.000 C
ATOM     61  C4  A00 X   4      32.484  78.236  71.1080  0.00  0.00     0.000 C
ATOM     62  C5  A00 X   4      32.005  79.689  70.8630  0.00  0.00     0.000 C
ATOM     63  O5  A00 X   4      31.006  79.691  69.8120  0.00  0.00     0.000 O
BRANCH 59 66
ATOM     64   N  A00 X   4      30.500  76.661  69.4540  0.00  0.00     0.000 N
ATOM     66  HD  A00 X   4      30.881  77.046  68.7790  0.00  0.00     0.000 HD
ATOM     66   O  A00 X   4      28.162  76.371  68.9540  0.00  0.00     0.000 OA
ATOM     67   S  A00 X   4      29.409  75.688  68.8050  0.00  0.00     0.000 S
ATOM     68   O  A00 X   4      29.907  75.599  67.4630  0.00  0.00     0.000 OA
ATOM     69   O  A00 X   4      29.623  74.506  69.5920  0.00  0.00     0.000 OA
ENDBRANCH 59 66
BRANCH 62 70
ATOM     70   C  A00 X   4      33.136  80.669  70.4690  0.00  0.00     0.000 C
ATOM     71   O  A00 X   4      34.350  81.508  67.1630  0.00  0.00     0.000 OA
ATOM     72   O  A00 X   4      35.514  80.882  69.1120  0.00  0.00     0.000 OA
ATOM     73   O  A00 X   4      33.110  80.877  69.0480  0.00  0.00     0.000 O
ATOM     74   O  A00 X   4      34.322  79.190  67.8260  0.00  0.00     0.000 OA
ATOM     75   S  A00 X   4      34.412  80.554  68.2350  0.00  0.00     0.000 S
ENDBRANCH 62 70
ENDBRANCH 57 61
ENDBRANCH 41 57
ENDBRANCH 40 44
ENDBRANCH 20 40
ENDBRANCH 19 23
ENDBRANCH 1 19
TORSDOF 14
ENDMDL
MODEL 80
REMARK VINA RESULT:      -0.3    114.917    118.860
ROOT
ATOM      1  C1  A00 X   1      96.208 129.188 120.7410  0.00  0.00     0.000 C
ATOM      2  C2  A00 X   1      96.002 129.172 122.2790  0.00  0.00     0.000 C
ATOM      3  C3  A00 X   1      94.680 128.509 122.7880  0.00  0.00     0.000 C
ATOM      4  C4  A00 X   1      93.586 128.286 121.7120  0.00  0.00     0.000 C
ATOM      5  C5  A00 X   1      93.760 129.215 120.5110  0.00  0.00     0.000 C
ATOM      6  O5  A00 X   1      95.041 128.854 119.9490  0.00  0.00     0.000 O
ATOM      7   O  A00 X   1      94.101 129.348 123.7850  0.00  0.00     0.000 O
ATOM      9  HD  A00 X   1      93.454 129.061 123.2860  0.00  0.00     0.000 HD
ATOM      9   O  A00 X   1      93.557 126.928 121.2710  0.00  0.00     0.000 O
ATOM     11  HD  A00 X   1      92.910 126.641 120.7720  0.00  0.00     0.000 HD
ENDROOT
BRANCH 2 11
ATOM     11   O  A00 X   1      97.126 128.488 122.8650  0.00  0.00     0.000 O
ATOM     12   O  A00 X   1      97.420 128.334 125.2430  0.00  0.00     0.000 OA
ATOM     13   O  A00 X   1      97.494 130.517 124.1740  0.00  0.00     0.000 OA
ATOM     14   O  A00 X   1      99.223 128.929 123.7920  0.00  0.00     0.000 OA
ATOM     15   S  A00 X   1      97.834 129.123 124.1110  0.00  0.00     0.000 S
ENDBRANCH 2 11
BRANCH 5 16
ATOM     16   C  A00 X   1      93.627 130.709 120.8240  0.00  0.00     0.000 C
ATOM     17   O  A00 X   1      93.945 131.512 119.9710  0.00  0.00     0.000 OA
ATOM     18   O  A00 X   1      93.210 131.118 121.8900  0.00  0.00     0.000 OA
ENDBRANCH 5 16
BRANCH 1 19
ATOM     19  O4  A00 X   2      96.833 130.407 120.2710  0.00  0.00     0.000 O
BRANCH 19 23
ATOM     20  C1  A00 X   2      99.137 128.418 117.2540  0.00  0.00     0.000 C
ATOM     21  C2  A00 X   2      99.850 128.767 118.5830  0.00  0.00     0.000 C
ATOM     22  C3  A00 X   2      98.823 129.067 119.6950  0.00  0.00     0.000 C
ATOM     23  C4  A00 X   2      97.832 130.162 119.2400  0.00  0.00     0.000 C
ATOM     24  C5  A00 X   2      97.202 129.703 117.8960  0.00  0.00     0.000 C
ATOM     25  O5  A00 X   2      98.261 129.527 116.9190  0.00  0.00     0.000 O
ATOM     26   O  A00 X   2      99.531 129.317 120.9210  0.00  0.00     0.000 O
ATOM     28  HD  A00 X   2     100.064 129.893 120.5550  0.00  0.00     0.000 HD
BRANCH 21 30
ATOM     28   N  A00 X   2     101.078 129.003 117.8180  0.00  0.00     0.000 N
ATOM     30  HD  A00 X   2     101.310 128.931 118.6490  0.00  0.00     0.000 HD
ATOM     30   O  A00 X   2     102.897 128.436 119.1700  0.00  0.00     0.000 OA
ATOM     31   S  A00 X   2     102.337 129.594 118.5690  0.00  0.00     0.000 S
ATOM     32   O  A00 X   2     103.120 130.167 117.5180  0.00  0.00     0.000 OA
ATOM     33   O  A00 X   2     101.862 130.619 119.4500  0.00  0.00     0.000 OA
ENDBRANCH 21 30
BRANCH 24 34
ATOM     34   C  A00 X   2      96.006 130.512 117.3410  0.00  0.00     0.000 C
ATOM     35   O  A00 X   2      96.137 134.065 116.5540  0.00  0.00     0.000 OA
ATOM     36   O  A00 X   2      96.235 131.931 117.4610  0.00  0.00     0.000 O
ATOM     37   O  A00 X   2      97.610 132.454 115.6440  0.00  0.00     0.000 OA
ATOM     38   S  A00 X   2      96.281 132.720 116.1020  0.00  0.00     0.000 S
ATOM     39   O  A00 X   2      95.195 132.226 115.3100  0.00  0.00     0.000 OA
ENDBRANCH 24 34
BRANCH 20 40
ATOM     40  O4  A00 X   3      98.349 127.251 117.5320  0.00  0.00     0.000 O
BRANCH 40 44
ATOM     41  C1  A00 X   3      95.120 125.651 117.1560  0.00  0.00     0.000 C
ATOM     42  C2  A00 X   3      96.310 125.059 117.9430  0.00  0.00     0.000 C
ATOM     43  C3  A00 X   3      97.602 125.069 117.0860  0.00  0.00     0.000 C
ATOM     44  C4  A00 X   3      97.922 126.410 116.4390  0.00  0.00     0.000 C
ATOM     45  C5  A00 X   3      96.682 126.937 115.6640  0.00  0.00     0.000 C
ATOM     46  O5  A00 X   3      95.485 126.900 116.5060  0.00  0.00     0.000 O
ATOM     47   O  A00 X   3      98.749 124.465 117.6820  0.00  0.00     0.000 O
ATOM     49  HD  A00 X   3      99.155 125.129 117.3040  0.00  0.00     0.000 HD
BRANCH 42 49
ATOM     49   O  A00 X   3      96.463 125.854 119.1390  0.00  0.00     0.000 O
ATOM     50   O  A00 X   3      97.974 125.917 120.9960  0.00  0.00     0.000 OA
ATOM     51   O  A00 X   3      97.234 123.818 120.1970  0.00  0.00     0.000 OA
ATOM     52   O  A00 X   3      95.669 125.234 121.2600  0.00  0.00     0.000 OA
ATOM     53   S  A00 X   3      96.860 125.180 120.4850  0.00  0.00     0.000 S
ENDBRANCH 42 49
BRANCH 45 54
ATOM     54   C  A00 X   3      96.500 126.212 114.3250  0.00  0.00     0.000 C
ATOM     55   O  A00 X   3      97.033 125.140 114.1230  0.00  0.00     0.000 OA
ATOM     56   O  A00 X   3      95.816 126.700 113.4380  0.00  0.00     0.000 OA
ENDBRANCH 45 54
BRANCH 41 57
ATOM     57  O4  A00 X   4      94.531 124.676 116.2670  0.00  0.00     0.000 O
BRANCH 57 61
ATOM     58  C1  A00 X   4      90.554 124.156 114.6680  0.00  0.00     0.000 C
ATOM     59  C2  A00 X   4      91.466 125.244 114.0480  0.00  0.00     0.000 C
ATOM     60  C3  A00 X   4      92.951 125.099 114.4410  0.00  0.00     0.000 C
ATOM     61  C4  A00 X   4      93.124 124.890 115.9610  0.00  0.00     0.000 C
ATOM     62  C5  A00 X   4      92.298 123.631 116.3240  0.00  0.00     0.000 C
ATOM     63  O5  A00 X   4      90.897 123.882 116.0460  0.00  0.00     0.000 O
BRANCH 59 66
ATOM     64   N  A00 X   4      90.995 126.531 114.5910  0.00  0.00     0.000 N
ATOM     66  HD  A00 X   4      90.586 126.517 115.3540  0.00  0.00     0.000 HD
ATOM     66   O  A00 X   4      89.347 126.553 112.8350  0.00  0.00     0.000 OA
ATOM     67   S  A00 X   4      90.086 127.459 113.6580  0.00  0.00     0.000 S
ATOM     68   O  A00 X   4      89.321 128.155 114.6510  0.00  0.00     0.000 OA
ATOM     69   O  A00 X   4      91.100 128.258 113.0300  0.00  0.00     0.000 OA
ENDBRANCH 59 66
BRANCH 62 70
ATOM     70   C  A00 X   4      92.435 123.191 117.8010  0.00  0.00     0.000 C
ATOM     71   O  A00 X   4      90.416 124.161 120.6460  0.00  0.00     0.000 OA
ATOM     72   O  A00 X   4      92.754 124.110 120.3700  0.00  0.00     0.000 OA
ATOM     73   O  A00 X   4      91.277 123.623 118.5350  0.00  0.00     0.000 O
ATOM     74   O  A00 X   4      91.458 125.891 119.3280  0.00  0.00     0.000 OA
ATOM     75   S  A00 X   4      91.503 124.540 119.7870  0.00  0.00     0.000 S
ENDBRANCH 62 70
ENDBRANCH 57 61
ENDBRANCH 41 57
ENDBRANCH 40 44
ENDBRANCH 20 40
ENDBRANCH 19 23
ENDBRANCH 1 19
TORSDOF 14
ENDMDL
MODEL 81
REMARK VINA RESULT:      -0.3    115.287    119.381
ROOT
ATOM      1  C1  A00 X   1      96.920 130.358 119.5790  0.00  0.00     0.000 C
ATOM      2  C2  A00 X   1      97.091 130.364 121.1210  0.00  0.00     0.000 C
ATOM      3  C3  A00 X   1      95.838 129.932 121.9530  0.00  0.00     0.000 C
ATOM      4  C4  A00 X   1      94.496 129.909 121.1770  0.00  0.00     0.000 C
ATOM      5  C5  A00 X   1      94.529 130.806 119.9400  0.00  0.00     0.000 C
ATOM      6  O5  A00 X   1      95.558 130.235 119.1000  0.00  0.00     0.000 O
ATOM      7   O  A00 X   1      95.667 130.849 123.0310  0.00  0.00     0.000 O
ATOM      9  HD  A00 X   1      94.880 130.681 122.7110  0.00  0.00     0.000 HD
ATOM      9   O  A00 X   1      94.133 128.581 120.8000  0.00  0.00     0.000 O
ATOM     11  HD  A00 X   1      93.346 128.414 120.4800  0.00  0.00     0.000 HD
ENDROOT
BRANCH 2 11
ATOM     11   O  A00 X   1      98.191 129.492 121.4440  0.00  0.00     0.000 O
ATOM     12   O  A00 X   1      99.019 129.268 123.6870  0.00  0.00     0.000 OA
ATOM     13   O  A00 X   1      99.200 131.416 122.5600  0.00  0.00     0.000 OA
ATOM     14   O  A00 X   1     100.493 129.559 121.8290  0.00  0.00     0.000 OA
ATOM     15   S  A00 X   1      99.275 129.984 122.4640  0.00  0.00     0.000 S
ENDBRANCH 2 11
BRANCH 5 16
ATOM     16   C  A00 X   1      94.730 132.298 120.2260  0.00  0.00     0.000 C
ATOM     17   O  A00 X   1      94.964 133.042 119.2960  0.00  0.00     0.000 OA
ATOM     18   O  A00 X   1      94.657 132.762 121.3470  0.00  0.00     0.000 OA
ENDBRANCH 5 16
BRANCH 1 19
ATOM     19  O4  A00 X   2      97.610 131.456 118.9340  0.00  0.00     0.000 O
BRANCH 19 23
ATOM     20  C1  A00 X   2      98.750 129.128 115.5210  0.00  0.00     0.000 C
ATOM     21  C2  A00 X   2      99.810 129.339 116.6290  0.00  0.00     0.000 C
ATOM     22  C3  A00 X   2      99.147 129.800 117.9440  0.00  0.00     0.000 C
ATOM     23  C4  A00 X   2      98.275 131.052 117.7020  0.00  0.00     0.000 C
ATOM     24  C5  A00 X   2      97.272 130.720 116.5640  0.00  0.00     0.000 C
ATOM     25  O5  A00 X   2      98.019 130.374 115.3690  0.00  0.00     0.000 O
ATOM     26   O  A00 X   2     100.161 129.914 118.9560  0.00  0.00     0.000 O
ATOM     28  HD  A00 X   2     100.680 130.393 118.4540  0.00  0.00     0.000 HD
BRANCH 21 30
ATOM     28   N  A00 X   2     100.840 129.367 115.5860  0.00  0.00     0.000 N
ATOM     30  HD  A00 X   2     101.250 129.249 116.3390  0.00  0.00     0.000 HD
ATOM     30   O  A00 X   2     102.809 128.485 116.4820  0.00  0.00     0.000 OA
ATOM     31   S  A00 X   2     102.324 129.727 115.9940  0.00  0.00     0.000 S
ATOM     32   O  A00 X   2     102.915 130.167 114.7680  0.00  0.00     0.000 OA
ATOM     33   O  A00 X   2     102.255 130.810 116.9290  0.00  0.00     0.000 OA
ENDBRANCH 21 30
BRANCH 24 34
ATOM     34   C  A00 X   2      96.132 131.727 116.2850  0.00  0.00     0.000 C
ATOM     35   O  A00 X   2      96.665 135.212 115.3730  0.00  0.00     0.000 OA
ATOM     36   O  A00 X   2      96.618 133.085 116.3000  0.00  0.00     0.000 O
ATOM     37   O  A00 X   2      97.583 133.381 114.1900  0.00  0.00     0.000 OA
ATOM     38   S  A00 X   2      96.468 133.866 114.9440  0.00  0.00     0.000 S
ATOM     39   O  A00 X   2      95.156 133.573 114.4500  0.00  0.00     0.000 OA
ENDBRANCH 24 34
BRANCH 20 40
ATOM     40  O4  A00 X   3      97.867 128.112 116.0170  0.00  0.00     0.000 O
BRANCH 40 44
ATOM     41  C1  A00 X   3      94.421 127.091 116.4760  0.00  0.00     0.000 C
ATOM     42  C2  A00 X   3      95.648 126.298 116.9740  0.00  0.00     0.000 C
ATOM     43  C3  A00 X   3      96.679 126.094 115.8340  0.00  0.00     0.000 C
ATOM     44  C4  A00 X   3      97.055 127.366 115.0850  0.00  0.00     0.000 C
ATOM     45  C5  A00 X   3      95.771 128.104 114.6120  0.00  0.00     0.000 C
ATOM     46  O5  A00 X   3      94.823 128.265 115.7170  0.00  0.00     0.000 O
ATOM     47   O  A00 X   3      97.816 125.296 116.1580  0.00  0.00     0.000 O
ATOM     49  HD  A00 X   3      98.226 125.885 115.6730  0.00  0.00     0.000 HD
BRANCH 42 49
ATOM     49   O  A00 X   3      96.217 127.044 118.0730  0.00  0.00     0.000 O
ATOM     50   O  A00 X   3      98.118 126.830 119.5120  0.00  0.00     0.000 OA
ATOM     51   O  A00 X   3      96.866 124.897 118.9820  0.00  0.00     0.000 OA
ATOM     52   O  A00 X   3      95.864 126.551 120.3410  0.00  0.00     0.000 OA
ATOM     53   S  A00 X   3      96.807 126.300 119.3060  0.00  0.00     0.000 S
ENDBRANCH 42 49
BRANCH 45 54
ATOM     54   C  A00 X   3      95.152 127.433 113.3800  0.00  0.00     0.000 C
ATOM     55   O  A00 X   3      95.433 126.288 113.0920  0.00  0.00     0.000 OA
ATOM     56   O  A00 X   3      94.368 128.039 112.6660  0.00  0.00     0.000 OA
ENDBRANCH 45 54
BRANCH 41 57
ATOM     57  O4  A00 X   4      93.480 126.240 115.7850  0.00  0.00     0.000 O
BRANCH 57 61
ATOM     58  C1  A00 X   4      89.206 126.423 115.2000  0.00  0.00     0.000 C
ATOM     59  C2  A00 X   4      90.111 127.345 114.3450  0.00  0.00     0.000 C
ATOM     60  C3  A00 X   4      91.600 126.944 114.3760  0.00  0.00     0.000 C
ATOM     61  C4  A00 X   4      92.097 126.695 115.8170  0.00  0.00     0.000 C
ATOM     62  C5  A00 X   4      91.183 125.593 116.4080  0.00  0.00     0.000 C
ATOM     63  O5  A00 X   4      89.819 126.083 116.4640  0.00  0.00     0.000 O
BRANCH 59 66
ATOM     64   N  A00 X   4      90.008 128.688 114.9420  0.00  0.00     0.000 N
ATOM     66  HD  A00 X   4      89.799 128.738 115.7810  0.00  0.00     0.000 HD
ATOM     66   O  A00 X   4      88.014 129.009 113.6310  0.00  0.00     0.000 OA
ATOM     67   S  A00 X   4      89.071 129.767 114.2230  0.00  0.00     0.000 S
ATOM     68   O  A00 X   4      88.697 130.575 115.3470  0.00  0.00     0.000 OA
ATOM     69   O  A00 X   4      90.024 130.385 113.3460  0.00  0.00     0.000 OA
ENDBRANCH 59 66
BRANCH 62 70
ATOM     70   C  A00 X   4      91.595 125.122 117.8230  0.00  0.00     0.000 C
ATOM     71   O  A00 X   4      90.515 126.399 121.0350  0.00  0.00     0.000 OA
ATOM     72   O  A00 X   4      92.674 125.950 120.2100  0.00  0.00     0.000 OA
ATOM     73   O  A00 X   4      90.739 125.740 118.7970  0.00  0.00     0.000 O
ATOM     74   O  A00 X   4      91.484 127.936 119.4500  0.00  0.00     0.000 OA
ATOM     75   S  A00 X   4      91.410 126.594 119.9290  0.00  0.00     0.000 S
ENDBRANCH 62 70
ENDBRANCH 57 61
ENDBRANCH 41 57
ENDBRANCH 40 44
ENDBRANCH 20 40
ENDBRANCH 19 23
ENDBRANCH 1 19
TORSDOF 14
ENDMDL
MODEL 82
REMARK VINA RESULT:      -0.3     89.815     95.826
ROOT
ATOM      1  C1  A00 X   1      64.600  22.251  72.2010  0.00  0.00     0.000 C
ATOM      2  C2  A00 X   1      63.169  22.647  71.7480  0.00  0.00     0.000 C
ATOM      3  C3  A00 X   1      62.885  22.558  70.2130  0.00  0.00     0.000 C
ATOM      4  C4  A00 X   1      64.138  22.446  69.3060  0.00  0.00     0.000 C
ATOM      5  C5  A00 X   1      65.395  22.981  69.9910  0.00  0.00     0.000 C
ATOM      6  O5  A00 X   1      65.579  22.124  71.1400  0.00  0.00     0.000 O
ATOM      7   O  A00 X   1      62.194  23.737  69.8060  0.00  0.00     0.000 O
ATOM      9  HD  A00 X   1      62.779  23.559  69.1920  0.00  0.00     0.000 HD
ATOM      9   O  A00 X   1      64.355  21.102  68.8790  0.00  0.00     0.000 O
ATOM     11  HD  A00 X   1      64.940  20.924  68.2660  0.00  0.00     0.000 HD
ENDROOT
BRANCH 2 11
ATOM     11   O  A00 X   1      62.238  21.800  72.4490  0.00  0.00     0.000 O
ATOM     12   O  A00 X   1      59.890  21.805  71.9430  0.00  0.00     0.000 OA
ATOM     13   O  A00 X   1      60.919  23.819  72.8380  0.00  0.00     0.000 OA
ATOM     14   O  A00 X   1      60.689  21.878  74.1950  0.00  0.00     0.000 OA
ATOM     15   S  A00 X   1      60.841  22.384  72.8570  0.00  0.00     0.000 S
ENDBRANCH 2 11
BRANCH 5 16
ATOM     16   C  A00 X   1      65.360  24.473  70.3380  0.00  0.00     0.000 C
ATOM     17   O  A00 X   1      66.220  24.920  71.0680  0.00  0.00     0.000 OA
ATOM     18   O  A00 X   1      64.508  25.222  69.9050  0.00  0.00     0.000 OA
ENDBRANCH 5 16
BRANCH 1 19
ATOM     19  O4  A00 X   2      65.096  23.079  73.2810  0.00  0.00     0.000 O
BRANCH 19 23
ATOM     20  C1  A00 X   2      66.980  19.813  75.3180  0.00  0.00     0.000 C
ATOM     21  C2  A00 X   2      65.592  20.268  75.8290  0.00  0.00     0.000 C
ATOM     22  C3  A00 X   2      64.869  21.123  74.7670  0.00  0.00     0.000 C
ATOM     23  C4  A00 X   2      65.760  22.303  74.3200  0.00  0.00     0.000 C
ATOM     24  C5  A00 X   2      67.121  21.719  73.8510  0.00  0.00     0.000 C
ATOM     25  O5  A00 X   2      67.729  21.004  74.9580  0.00  0.00     0.000 O
ATOM     26   O  A00 X   2      63.561  21.462  75.2600  0.00  0.00     0.000 O
ATOM     28  HD  A00 X   2      63.866  21.747  76.0190  0.00  0.00     0.000 HD
BRANCH 21 30
ATOM     28   N  A00 X   2      66.026  19.940  77.1910  0.00  0.00     0.000 N
ATOM     30  HD  A00 X   2      65.164  20.017  77.2150  0.00  0.00     0.000 HD
ATOM     30   O  A00 X   2      64.156  19.236  78.4010  0.00  0.00     0.000 OA
ATOM     31   S  A00 X   2      65.079  20.314  78.4000  0.00  0.00     0.000 S
ATOM     32   O  A00 X   2      65.964  20.354  79.5230  0.00  0.00     0.000 OA
ATOM     33   O  A00 X   2      64.552  21.620  78.1360  0.00  0.00     0.000 OA
ENDBRANCH 21 30
BRANCH 24 34
ATOM     34   C  A00 X   2      68.111  22.669  73.1370  0.00  0.00     0.000 C
ATOM     35   O  A00 X   2      69.415  25.735  74.6070  0.00  0.00     0.000 OA
ATOM     36   O  A00 X   2      68.172  23.950  73.7950  0.00  0.00     0.000 O
ATOM     37   O  A00 X   2      69.601  23.603  75.6140  0.00  0.00     0.000 OA
ATOM     38   S  A00 X   2      69.578  24.335  74.3850  0.00  0.00     0.000 S
ATOM     39   O  A00 X   2      70.545  23.987  73.3870  0.00  0.00     0.000 OA
ENDBRANCH 24 34
BRANCH 20 40
ATOM     40  O4  A00 X   3      66.723  19.033  74.1420  0.00  0.00     0.000 O
BRANCH 40 44
ATOM     41  C1  A00 X   3      67.657  18.433  70.6930  0.00  0.00     0.000 C
ATOM     42  C2  A00 X   3      66.500  17.722  71.4280  0.00  0.00     0.000 C
ATOM     43  C3  A00 X   3      66.980  17.135  72.7810  0.00  0.00     0.000 C
ATOM     44  C4  A00 X   3      67.735  18.119  73.6660  0.00  0.00     0.000 C
ATOM     45  C5  A00 X   3      68.883  18.788  72.8590  0.00  0.00     0.000 C
ATOM     46  O5  A00 X   3      68.387  19.318  71.5870  0.00  0.00     0.000 O
ATOM     47   O  A00 X   3      66.015  16.379  73.5080  0.00  0.00     0.000 O
ATOM     49  HD  A00 X   3      66.378  16.778  74.1860  0.00  0.00     0.000 HD
BRANCH 42 49
ATOM     49   O  A00 X   3      65.455  18.700  71.6180  0.00  0.00     0.000 O
ATOM     50   O  A00 X   3      63.307  18.758  72.6750  0.00  0.00     0.000 OA
ATOM     51   O  A00 X   3      63.910  16.848  71.4180  0.00  0.00     0.000 OA
ATOM     52   O  A00 X   3      63.540  18.880  70.2710  0.00  0.00     0.000 OA
ATOM     53   S  A00 X   3      63.959  18.287  71.4930  0.00  0.00     0.000 S
ENDBRANCH 42 49
BRANCH 45 54
ATOM     54   C  A00 X   3      70.083  17.849  72.6940  0.00  0.00     0.000 C
ATOM     55   O  A00 X   3      71.166  18.281  72.3550  0.00  0.00     0.000 OA
ATOM     56   O  A00 X   3      69.972  16.650  72.9000  0.00  0.00     0.000 OA
ENDBRANCH 45 54
BRANCH 41 57
ATOM     57  O4  A00 X   4      68.495  17.495  69.9820  0.00  0.00     0.000 O
BRANCH 57 61
ATOM     58  C1  A00 X   4      70.914  17.802  66.4190  0.00  0.00     0.000 C
ATOM     59  C2  A00 X   4      71.464  18.392  67.7420  0.00  0.00     0.000 C
ATOM     60  C3  A00 X   4      70.699  17.915  68.9930  0.00  0.00     0.000 C
ATOM     61  C4  A00 X   4      69.170  18.034  68.8100  0.00  0.00     0.000 C
ATOM     62  C5  A00 X   4      68.815  17.199  67.5550  0.00  0.00     0.000 C
ATOM     63  O5  A00 X   4      69.469  17.777  66.3960  0.00  0.00     0.000 O
BRANCH 59 66
ATOM     64   N  A00 X   4      71.323  19.859  67.7210  0.00  0.00     0.000 N
ATOM     66  HD  A00 X   4      70.684  20.192  67.2410  0.00  0.00     0.000 HD
ATOM     66   O  A00 X   4      73.365  19.937  66.4470  0.00  0.00     0.000 OA
ATOM     67   S  A00 X   4      72.609  20.738  67.3580  0.00  0.00     0.000 S
ATOM     68   O  A00 X   4      71.979  21.893  66.7870  0.00  0.00     0.000 OA
ATOM     69   O  A00 X   4      73.150  20.951  68.6700  0.00  0.00     0.000 OA
ENDBRANCH 59 66
BRANCH 62 70
ATOM     70   C  A00 X   4      67.298  17.105  67.2670  0.00  0.00     0.000 C
ATOM     71   O  A00 X   4      65.258  19.231  65.1640  0.00  0.00     0.000 OA
ATOM     72   O  A00 X   4      64.929  18.491  67.3750  0.00  0.00     0.000 OA
ATOM     73   O  A00 X   4      66.962  17.994  66.1900  0.00  0.00     0.000 O
ATOM     74   O  A00 X   4      66.552  20.252  66.9240  0.00  0.00     0.000 OA
ATOM     75   S  A00 X   4      65.871  19.088  66.4540  0.00  0.00     0.000 S
ENDBRANCH 62 70
ENDBRANCH 57 61
ENDBRANCH 41 57
ENDBRANCH 40 44
ENDBRANCH 20 40
ENDBRANCH 19 23
ENDBRANCH 1 19
TORSDOF 14
ENDMDL
MODEL 83
REMARK VINA RESULT:      -0.3    144.265    149.101
ROOT
ATOM      1  C1  A00 X   1      14.075  71.835  61.0200  0.00  0.00     0.000 C
ATOM      2  C2  A00 X   1      14.506  72.139  59.5600  0.00  0.00     0.000 C
ATOM      3  C3  A00 X   1      13.402  71.962  58.4660  0.00  0.00     0.000 C
ATOM      4  C4  A00 X   1      12.146  71.167  58.9070  0.00  0.00     0.000 C
ATOM      5  C5  A00 X   1      12.429  70.256  60.1010  0.00  0.00     0.000 C
ATOM      6  O5  A00 X   1      12.804  71.156  61.1680  0.00  0.00     0.000 O
ATOM      7   O  A00 X   1      13.961  71.256  57.3610  0.00  0.00     0.000 O
ATOM      9  HD  A00 X   1      13.166  70.938  57.4910  0.00  0.00     0.000 HD
ATOM      9   O  A00 X   1      11.057  72.039  59.2130  0.00  0.00     0.000 O
ATOM     11  HD  A00 X   1      10.262  71.721  59.3430  0.00  0.00     0.000 HD
ENDROOT
BRANCH 2 11
ATOM     11   O  A00 X   1      14.994  73.494  59.5200  0.00  0.00     0.000 O
ATOM     12   O  A00 X   1      15.548  74.583  57.4530  0.00  0.00     0.000 OA
ATOM     13   O  A00 X   1      16.830  72.639  58.1540  0.00  0.00     0.000 OA
ATOM     14   O  A00 X   1      16.994  74.687  59.3530  0.00  0.00     0.000 OA
ATOM     15   S  A00 X   1      16.159  73.851  58.5330  0.00  0.00     0.000 S
ENDBRANCH 2 11
BRANCH 5 16
ATOM     16   C  A00 X   1      13.456  69.150  59.8420  0.00  0.00     0.000 C
ATOM     17   O  A00 X   1      13.893  68.529  60.7900  0.00  0.00     0.000 OA
ATOM     18   O  A00 X   1      13.843  68.867  58.7260  0.00  0.00     0.000 OA
ENDBRANCH 5 16
BRANCH 1 19
ATOM     19  O4  A00 X   2      15.116  71.183  61.7880  0.00  0.00     0.000 O
BRANCH 19 23
ATOM     20  C1  A00 X   2      14.268  73.376  65.3710  0.00  0.00     0.000 C
ATOM     21  C2  A00 X   2      15.433  73.878  64.4850  0.00  0.00     0.000 C
ATOM     22  C3  A00 X   2      15.340  73.283  63.0650  0.00  0.00     0.000 C
ATOM     23  C4  A00 X   2      15.254  71.741  63.1260  0.00  0.00     0.000 C
ATOM     24  C5  A00 X   2      14.066  71.368  64.0540  0.00  0.00     0.000 C
ATOM     25  O5  A00 X   2      14.310  71.924  65.3730  0.00  0.00     0.000 O
ATOM     26   O  A00 X   2      16.400  73.831  62.2640  0.00  0.00     0.000 O
ATOM     28  HD  A00 X   2      17.008  73.647  62.8520  0.00  0.00     0.000 HD
BRANCH 21 30
ATOM     28   N  A00 X   2      16.133  74.287  65.7070  0.00  0.00     0.000 N
ATOM     30  HD  A00 X   2      16.530  74.682  65.0460  0.00  0.00     0.000 HD
ATOM     30   O  A00 X   2      17.432  76.164  65.2080  0.00  0.00     0.000 OA
ATOM     31   S  A00 X   2      17.620  74.809  65.5900  0.00  0.00     0.000 S
ATOM     32   O  A00 X   2      18.149  74.621  66.9060  0.00  0.00     0.000 OA
ATOM     33   O  A00 X   2      18.296  73.959  64.6560  0.00  0.00     0.000 OA
ENDBRANCH 21 30
BRANCH 24 34
ATOM     34   C  A00 X   2      13.621  69.888  64.1040  0.00  0.00     0.000 C
ATOM     35   O  A00 X   2      15.806  67.130  65.0380  0.00  0.00     0.000 OA
ATOM     36   O  A00 X   2      14.757  69.002  64.1540  0.00  0.00     0.000 O
ATOM     37   O  A00 X   2      15.413  69.023  66.3990  0.00  0.00     0.000 OA
ATOM     38   S  A00 X   2      14.856  68.111  65.4470  0.00  0.00     0.000 S
ATOM     39   O  A00 X   2      13.538  67.613  65.6980  0.00  0.00     0.000 OA
ENDBRANCH 24 34
BRANCH 20 40
ATOM     40  O4  A00 X   3      13.068  73.821  64.7220  0.00  0.00     0.000 O
BRANCH 40 44
ATOM     41  C1  A00 X   3       9.732  72.944  63.6130  0.00  0.00     0.000 C
ATOM     42  C2  A00 X   3      10.408  74.312  63.3740  0.00  0.00     0.000 C
ATOM     43  C3  A00 X   3      10.975  74.889  64.6960  0.00  0.00     0.000 C
ATOM     44  C4  A00 X   3      11.847  73.922  65.4870  0.00  0.00     0.000 C
ATOM     45  C5  A00 X   3      11.098  72.575  65.6900  0.00  0.00     0.000 C
ATOM     46  O5  A00 X   3      10.572  72.073  64.4200  0.00  0.00     0.000 O
ATOM     47   O  A00 X   3      11.548  76.193  64.6120  0.00  0.00     0.000 O
ATOM     49  HD  A00 X   3      12.125  75.852  65.1600  0.00  0.00     0.000 HD
BRANCH 42 49
ATOM     49   O  A00 X   3      11.453  74.102  62.3980  0.00  0.00     0.000 O
ATOM     50   O  A00 X   3      13.150  75.437  61.3640  0.00  0.00     0.000 OA
ATOM     51   O  A00 X   3      10.996  76.363  61.6650  0.00  0.00     0.000 OA
ATOM     52   O  A00 X   3      11.258  74.601  60.1120  0.00  0.00     0.000 OA
ATOM     53   S  A00 X   3      11.744  75.182  61.3150  0.00  0.00     0.000 S
ENDBRANCH 42 49
BRANCH 45 54
ATOM     54   C  A00 X   3      10.031  72.679  66.7870  0.00  0.00     0.000 C
ATOM     55   O  A00 X   3       9.610  71.682  67.3370  0.00  0.00     0.000 OA
ATOM     56   O  A00 X   3       9.586  73.764  67.1250  0.00  0.00     0.000 OA
ENDBRANCH 45 54
BRANCH 41 57
ATOM     57  O4  A00 X   4       8.386  73.095  64.1170  0.00  0.00     0.000 O
BRANCH 57 61
ATOM     58  C1  A00 X   4       4.857  70.617  63.9110  0.00  0.00     0.000 C
ATOM     59  C2  A00 X   4       5.965  70.246  64.9290  0.00  0.00     0.000 C
ATOM     60  C3  A00 X   4       6.985  71.378  65.1660  0.00  0.00     0.000 C
ATOM     61  C4  A00 X   4       7.493  71.980  63.8380  0.00  0.00     0.000 C
ATOM     62  C5  A00 X   4       6.239  72.475  63.0760  0.00  0.00     0.000 C
ATOM     63  O5  A00 X   4       5.384  71.342  62.7770  0.00  0.00     0.000 O
BRANCH 59 66
ATOM     64   N  A00 X   4       6.705  69.112  64.3490  0.00  0.00     0.000 N
ATOM     66  HD  A00 X   4       6.701  69.030  63.4870  0.00  0.00     0.000 HD
ATOM     66   O  A00 X   4       5.012  67.666  65.2660  0.00  0.00     0.000 OA
ATOM     67   S  A00 X   4       6.393  67.643  64.8990  0.00  0.00     0.000 S
ATOM     68   O  A00 X   4       6.710  66.860  63.7400  0.00  0.00     0.000 OA
ATOM     69   O  A00 X   4       7.365  67.555  65.9520  0.00  0.00     0.000 OA
ENDBRANCH 59 66
BRANCH 62 70
ATOM     70   C  A00 X   4       6.554  73.216  61.7550  0.00  0.00     0.000 C
ATOM     71   O  A00 X   4       7.001  71.834  58.4380  0.00  0.00     0.000 OA
ATOM     72   O  A00 X   4       8.321  73.356  59.6570  0.00  0.00     0.000 OA
ATOM     73   O  A00 X   4       6.399  72.307  60.6520  0.00  0.00     0.000 O
ATOM     74   O  A00 X   4       8.372  70.989  60.2330  0.00  0.00     0.000 OA
ATOM     75   S  A00 X   4       7.629  72.088  59.7050  0.00  0.00     0.000 S
ENDBRANCH 62 70
ENDBRANCH 57 61
ENDBRANCH 41 57
ENDBRANCH 40 44
ENDBRANCH 20 40
ENDBRANCH 19 23
ENDBRANCH 1 19
TORSDOF 14
ENDMDL
MODEL 84
REMARK VINA RESULT:      -0.3    197.657    201.863
ROOT
ATOM      1  C1  A00 X   1     193.429 199.347 189.6960  0.00  0.00     0.000 C
ATOM      2  C2  A00 X   1     192.468 200.558 189.5600  0.00  0.00     0.000 C
ATOM      3  C3  A00 X   1     192.495 201.306 188.1860  0.00  0.00     0.000 C
ATOM      4  C4  A00 X   1     193.712 200.992 187.2780  0.00  0.00     0.000 C
ATOM      5  C5  A00 X   1     194.904 200.460 188.0740  0.00  0.00     0.000 C
ATOM      6  O5  A00 X   1     194.433 199.225 188.6590  0.00  0.00     0.000 O
ATOM      7   O  A00 X   1     192.525 202.710 188.4310  0.00  0.00     0.000 O
ATOM      9  HD  A00 X   1     193.073 202.553 187.7800  0.00  0.00     0.000 HD
ATOM      9   O  A00 X   1     193.368 200.066 186.2470  0.00  0.00     0.000 O
ATOM     11  HD  A00 X   1     193.917 199.909 185.5960  0.00  0.00     0.000 HD
ENDROOT
BRANCH 2 11
ATOM     11   O  A00 X   1     191.130 200.086 189.8110  0.00  0.00     0.000 O
ATOM     12   O  A00 X   1     189.207 201.486 189.4800  0.00  0.00     0.000 OA
ATOM     13   O  A00 X   1     190.837 202.086 191.1820  0.00  0.00     0.000 OA
ATOM     14   O  A00 X   1     189.469 200.159 191.4510  0.00  0.00     0.000 OA
ATOM     15   S  A00 X   1     190.108 201.044 190.5140  0.00  0.00     0.000 S
ENDBRANCH 2 11
BRANCH 5 16
ATOM     16   C  A00 X   1     195.489 201.439 189.0970  0.00  0.00     0.000 C
ATOM     17   O  A00 X   1     196.288 201.022 189.9100  0.00  0.00     0.000 OA
ATOM     18   O  A00 X   1     195.188 202.616 189.1190  0.00  0.00     0.000 OA
ENDBRANCH 5 16
BRANCH 1 19
ATOM     19  O4  A00 X   2     194.017 199.242 191.0160  0.00  0.00     0.000 O
BRANCH 19 23
ATOM     20  C1  A00 X   2     193.737 194.968 191.1350  0.00  0.00     0.000 C
ATOM     21  C2  A00 X   2     192.630 195.777 191.8540  0.00  0.00     0.000 C
ATOM     22  C3  A00 X   2     192.617 197.241 191.3690  0.00  0.00     0.000 C
ATOM     23  C4  A00 X   2     194.018 197.876 191.5200  0.00  0.00     0.000 C
ATOM     24  C5  A00 X   2     195.034 196.966 190.7760  0.00  0.00     0.000 C
ATOM     25  O5  A00 X   2     195.000 195.643 191.3720  0.00  0.00     0.000 O
ATOM     26   O  A00 X   2     191.532 197.931 192.0130  0.00  0.00     0.000 O
ATOM     28  HD  A00 X   2     191.762 197.660 192.8030  0.00  0.00     0.000 HD
BRANCH 21 30
ATOM     28   N  A00 X   2     192.565 194.718 192.8670  0.00  0.00     0.000 N
ATOM     30  HD  A00 X   2     191.848 195.195 192.9570  0.00  0.00     0.000 HD
ATOM     30   O  A00 X   2     190.368 194.593 193.6490  0.00  0.00     0.000 OA
ATOM     31   S  A00 X   2     191.654 194.941 194.1390  0.00  0.00     0.000 S
ATOM     32   O  A00 X   2     192.197 194.037 195.1060  0.00  0.00     0.000 OA
ATOM     33   O  A00 X   2     191.844 196.296 194.5640  0.00  0.00     0.000 OA
ENDBRANCH 21 30
BRANCH 24 34
ATOM     34   C  A00 X   2     196.474 197.496 190.5790  0.00  0.00     0.000 C
ATOM     35   O  A00 X   2     198.671 198.497 193.3050  0.00  0.00     0.000 OA
ATOM     36   O  A00 X   2     196.963 198.136 191.7740  0.00  0.00     0.000 O
ATOM     37   O  A00 X   2     197.653 196.368 193.1420  0.00  0.00     0.000 OA
ATOM     38   S  A00 X   2     198.228 197.466 192.4250  0.00  0.00     0.000 S
ATOM     39   O  A00 X   2     199.123 197.160 191.3500  0.00  0.00     0.000 OA
ENDBRANCH 24 34
BRANCH 20 40
ATOM     40  O4  A00 X   3     193.415 195.027 189.7380  0.00  0.00     0.000 O
BRANCH 40 44
ATOM     41  C1  A00 X   3     194.657 195.573 186.3790  0.00  0.00     0.000 C
ATOM     42  C2  A00 X   3     193.178 195.314 186.7390  0.00  0.00     0.000 C
ATOM     43  C3  A00 X   3     193.037 194.055 187.6330  0.00  0.00     0.000 C
ATOM     44  C4  A00 X   3     193.960 194.032 188.8450  0.00  0.00     0.000 C
ATOM     45  C5  A00 X   3     195.426 194.295 188.4020  0.00  0.00     0.000 C
ATOM     46  O5  A00 X   3     195.511 195.485 187.5520  0.00  0.00     0.000 O
ATOM     47   O  A00 X   3     191.703 193.668 187.9580  0.00  0.00     0.000 O
ATOM     49  HD  A00 X   3     192.060 193.495 188.7270  0.00  0.00     0.000 HD
BRANCH 42 49
ATOM     49   O  A00 X   3     192.693 196.497 187.4120  0.00  0.00     0.000 O
ATOM     50   O  A00 X   3     190.653 197.178 188.4640  0.00  0.00     0.000 OA
ATOM     51   O  A00 X   3     190.543 195.975 186.4320  0.00  0.00     0.000 OA
ATOM     52   O  A00 X   3     191.405 198.175 186.3930  0.00  0.00     0.000 OA
ATOM     53   S  A00 X   3     191.238 196.997 187.1730  0.00  0.00     0.000 S
ENDBRANCH 42 49
BRANCH 45 54
ATOM     54   C  A00 X   3     196.057 193.052 187.7630  0.00  0.00     0.000 C
ATOM     55   O  A00 X   3     197.263 192.949 187.6690  0.00  0.00     0.000 OA
ATOM     56   O  A00 X   3     195.359 192.146 187.3360  0.00  0.00     0.000 OA
ENDBRANCH 45 54
BRANCH 41 57
ATOM     57  O4  A00 X   4     195.089 194.748 185.2740  0.00  0.00     0.000 O
BRANCH 57 61
ATOM     58  C1  A00 X   4     198.133 195.216 182.2480  0.00  0.00     0.000 C
ATOM     59  C2  A00 X   4     198.564 194.790 183.6730  0.00  0.00     0.000 C
ATOM     60  C3  A00 X   4     197.391 194.311 184.5530  0.00  0.00     0.000 C
ATOM     61  C4  A00 X   4     196.196 195.287 184.4970  0.00  0.00     0.000 C
ATOM     62  C5  A00 X   4     195.797 195.401 183.0040  0.00  0.00     0.000 C
ATOM     63  O5  A00 X   4     196.901 195.975 182.2580  0.00  0.00     0.000 O
BRANCH 59 66
ATOM     64   N  A00 X   4     199.146 195.946 184.3790  0.00  0.00     0.000 N
ATOM     66  HD  A00 X   4     198.878 196.735 184.1440  0.00  0.00     0.000 HD
ATOM     66   O  A00 X   4     201.216 195.469 183.2450  0.00  0.00     0.000 OA
ATOM     67   S  A00 X   4     200.740 196.064 184.4540  0.00  0.00     0.000 S
ATOM     68   O  A00 X   4     200.890 197.487 184.5430  0.00  0.00     0.000 OA
ATOM     69   O  A00 X   4     200.987 195.368 185.6850  0.00  0.00     0.000 OA
ENDBRANCH 59 66
BRANCH 62 70
ATOM     70   C  A00 X   4     194.535 196.260 182.7520  0.00  0.00     0.000 C
ATOM     71   O  A00 X   4     194.300 199.832 182.2130  0.00  0.00     0.000 OA
ATOM     72   O  A00 X   4     193.101 198.417 183.6630  0.00  0.00     0.000 OA
ATOM     73   O  A00 X   4     194.932 197.580 182.3470  0.00  0.00     0.000 O
ATOM     74   O  A00 X   4     195.393 199.037 184.2100  0.00  0.00     0.000 OA
ATOM     75   S  A00 X   4     194.417 198.793 183.1970  0.00  0.00     0.000 S
ENDBRANCH 62 70
ENDBRANCH 57 61
ENDBRANCH 41 57
ENDBRANCH 40 44
ENDBRANCH 20 40
ENDBRANCH 19 23
ENDBRANCH 1 19
TORSDOF 14
ENDMDL
MODEL 85
REMARK VINA RESULT:      -0.3     92.815     97.559
ROOT
ATOM      1  C1  A00 X   1      64.944  22.295  78.1520  0.00  0.00     0.000 C
ATOM      2  C2  A00 X   1      63.955  23.410  77.7210  0.00  0.00     0.000 C
ATOM      3  C3  A00 X   1      63.769  23.607  76.1800  0.00  0.00     0.000 C
ATOM      4  C4  A00 X   1      64.844  22.937  75.2860  0.00  0.00     0.000 C
ATOM      5  C5  A00 X   1      66.148  22.685  76.0430  0.00  0.00     0.000 C
ATOM      6  O5  A00 X   1      65.788  21.766  77.0990  0.00  0.00     0.000 O
ATOM      7   O  A00 X   1      63.811  25.001  75.8880  0.00  0.00     0.000 O
ATOM      9  HD  A00 X   1      64.261  24.597  75.2680  0.00  0.00     0.000 HD
ATOM      9   O  A00 X   1      64.368  21.714  74.7250  0.00  0.00     0.000 O
ATOM     11  HD  A00 X   1      64.818  21.310  74.1050  0.00  0.00     0.000 HD
ENDROOT
BRANCH 2 11
ATOM     11   O  A00 X   1      62.676  23.115  78.3140  0.00  0.00     0.000 O
ATOM     12   O  A00 X   1      60.704  24.374  77.7740  0.00  0.00     0.000 OA
ATOM     13   O  A00 X   1      62.557  25.485  78.8910  0.00  0.00     0.000 OA
ATOM     14   O  A00 X   1      61.273  23.842  80.0340  0.00  0.00     0.000 OA
ATOM     15   S  A00 X   1      61.753  24.302  78.7590  0.00  0.00     0.000 S
ENDBRANCH 2 11
BRANCH 5 16
ATOM     16   C  A00 X   1      66.861  23.945  76.5440  0.00  0.00     0.000 C
ATOM     17   O  A00 X   1      67.779  23.821  77.3270  0.00  0.00     0.000 OA
ATOM     18   O  A00 X   1      66.545  25.060  76.1800  0.00  0.00     0.000 OA
ENDBRANCH 5 16
BRANCH 1 19
ATOM     19  O4  A00 X   2      65.721  22.655  79.3210  0.00  0.00     0.000 O
BRANCH 19 23
ATOM     20  C1  A00 X   2      65.529  18.731  81.0320  0.00  0.00     0.000 C
ATOM     21  C2  A00 X   2      64.525  19.788  81.5540  0.00  0.00     0.000 C
ATOM     22  C3  A00 X   2      64.420  20.975  80.5740  0.00  0.00     0.000 C
ATOM     23  C4  A00 X   2      65.817  21.567  80.2840  0.00  0.00     0.000 C
ATOM     24  C5  A00 X   2      66.729  20.410  79.7890  0.00  0.00     0.000 C
ATOM     25  O5  A00 X   2      66.803  19.397  80.8260  0.00  0.00     0.000 O
ATOM     26   O  A00 X   2      63.428  21.893  81.0670  0.00  0.00     0.000 O
ATOM     28  HD  A00 X   2      63.774  21.919  81.8600  0.00  0.00     0.000 HD
BRANCH 21 30
ATOM     28   N  A00 X   2      64.625  19.173  82.8810  0.00  0.00     0.000 N
ATOM     30  HD  A00 X   2      63.921  19.678  82.8910  0.00  0.00     0.000 HD
ATOM     30   O  A00 X   2      62.566  19.427  83.9560  0.00  0.00     0.000 OA
ATOM     31   S  A00 X   2      63.905  19.878  84.0990  0.00  0.00     0.000 S
ATOM     32   O  A00 X   2      64.596  19.367  85.2430  0.00  0.00     0.000 OA
ATOM     33   O  A00 X   2      64.133  21.286  83.9680  0.00  0.00     0.000 OA
ENDBRANCH 21 30
BRANCH 24 34
ATOM     34   C  A00 X   2      68.116  20.776  79.2120  0.00  0.00     0.000 C
ATOM     35   O  A00 X   2      70.674  22.604  81.0500  0.00  0.00     0.000 OA
ATOM     36   O  A00 X   2      68.766  21.784  80.0120  0.00  0.00     0.000 O
ATOM     37   O  A00 X   2      69.674  20.601  81.8140  0.00  0.00     0.000 OA
ATOM     38   S  A00 X   2      70.122  21.343  80.6750  0.00  0.00     0.000 S
ATOM     39   O  A00 X   2      70.854  20.636  79.6680  0.00  0.00     0.000 OA
ENDBRANCH 24 34
BRANCH 20 40
ATOM     40  O4  A00 X   3      65.007  18.291  79.7700  0.00  0.00     0.000 O
BRANCH 40 44
ATOM     41  C1  A00 X   3      65.743  17.530  76.3050  0.00  0.00     0.000 C
ATOM     42  C2  A00 X   3      64.336  17.477  76.9380  0.00  0.00     0.000 C
ATOM     43  C3  A00 X   3      64.344  16.635  78.2400  0.00  0.00     0.000 C
ATOM     44  C4  A00 X   3      65.432  17.019  79.2350  0.00  0.00     0.000 C
ATOM     45  C5  A00 X   3      66.816  17.045  78.5260  0.00  0.00     0.000 C
ATOM     46  O5  A00 X   3      66.759  17.841  77.2990  0.00  0.00     0.000 O
ATOM     47   O  A00 X   3      63.077  16.445  78.8670  0.00  0.00     0.000 O
ATOM     49  HD  A00 X   3      63.545  16.549  79.5880  0.00  0.00     0.000 HD
BRANCH 42 49
ATOM     49   O  A00 X   3      63.935  18.841  77.1940  0.00  0.00     0.000 O
ATOM     50   O  A00 X   3      62.058  19.936  78.1970  0.00  0.00     0.000 OA
ATOM     51   O  A00 X   3      61.674  18.082  76.7810  0.00  0.00     0.000 OA
ATOM     52   O  A00 X   3      62.489  20.083  75.8220  0.00  0.00     0.000 OA
ATOM     53   S  A00 X   3      62.454  19.276  76.9930  0.00  0.00     0.000 S
ENDBRANCH 42 49
BRANCH 45 54
ATOM     54   C  A00 X   3      67.367  15.632  78.3040  0.00  0.00     0.000 C
ATOM     55   O  A00 X   3      68.553  15.452  78.1170  0.00  0.00     0.000 OA
ATOM     56   O  A00 X   3      66.624  14.663  78.3100  0.00  0.00     0.000 OA
ENDBRANCH 45 54
BRANCH 41 57
ATOM     57  O4  A00 X   4      66.025  16.344  75.5300  0.00  0.00     0.000 O
BRANCH 57 61
ATOM     58  C1  A00 X   4      68.617  15.555  72.1690  0.00  0.00     0.000 C
ATOM     59  C2  A00 X   4      69.245  15.656  73.5810  0.00  0.00     0.000 C
ATOM     60  C3  A00 X   4      68.209  15.578  74.7210  0.00  0.00     0.000 C
ATOM     61  C4  A00 X   4      67.009  16.516  74.4710  0.00  0.00     0.000 C
ATOM     62  C5  A00 X   4      66.407  16.099  73.1060  0.00  0.00     0.000 C
ATOM     63  O5  A00 X   4      67.393  16.316  72.0640  0.00  0.00     0.000 O
BRANCH 59 66
ATOM     64   N  A00 X   4      69.911  16.962  73.7380  0.00  0.00     0.000 N
ATOM     66  HD  A00 X   4      69.606  17.625  73.2720  0.00  0.00     0.000 HD
ATOM     66   O  A00 X   4      71.806  16.021  72.5890  0.00  0.00     0.000 OA
ATOM     67   S  A00 X   4      71.498  17.029  73.5540  0.00  0.00     0.000 S
ATOM     68   O  A00 X   4      71.649  18.382  73.1030  0.00  0.00     0.000 OA
ATOM     69   O  A00 X   4      71.920  16.811  74.9090  0.00  0.00     0.000 OA
ENDBRANCH 59 66
BRANCH 62 70
ATOM     70   C  A00 X   4      65.115  16.860  72.7260  0.00  0.00     0.000 C
ATOM     71   O  A00 X   4      64.777  20.014  70.9810  0.00  0.00     0.000 OA
ATOM     72   O  A00 X   4      63.794  19.255  72.9810  0.00  0.00     0.000 OA
ATOM     73   O  A00 X   4      65.442  17.935  71.8300  0.00  0.00     0.000 O
ATOM     74   O  A00 X   4      66.133  19.939  72.9740  0.00  0.00     0.000 OA
ATOM     75   S  A00 X   4      65.033  19.390  72.2480  0.00  0.00     0.000 S
ENDBRANCH 62 70
ENDBRANCH 57 61
ENDBRANCH 41 57
ENDBRANCH 40 44
ENDBRANCH 20 40
ENDBRANCH 19 23
ENDBRANCH 1 19
TORSDOF 14
ENDMDL
MODEL 86
REMARK VINA RESULT:      -0.3    155.812    160.309
ROOT
ATOM      1  C1  A00 X   1     153.361 164.547 169.2470  0.00  0.00     0.000 C
ATOM      2  C2  A00 X   1     152.566 164.367 170.5670  0.00  0.00     0.000 C
ATOM      3  C3  A00 X   1     151.459 165.435 170.8550  0.00  0.00     0.000 C
ATOM      4  C4  A00 X   1     151.536 166.724 169.9980  0.00  0.00     0.000 C
ATOM      5  C5  A00 X   1     152.938 166.963 169.4380  0.00  0.00     0.000 C
ATOM      6  O5  A00 X   1     153.190 165.825 168.5830  0.00  0.00     0.000 O
ATOM      7   O  A00 X   1     151.564 165.846 172.2160  0.00  0.00     0.000 O
ATOM      9  HD  A00 X   1     151.412 166.557 171.7450  0.00  0.00     0.000 HD
ATOM      9   O  A00 X   1     150.588 166.699 168.9310  0.00  0.00     0.000 O
ATOM     11  HD  A00 X   1     150.436 167.410 168.4600  0.00  0.00     0.000 HD
ENDROOT
BRANCH 2 11
ATOM     11   O  A00 X   1     151.960 163.060 170.5390  0.00  0.00     0.000 O
ATOM     12   O  A00 X   1     150.397 162.347 172.2170  0.00  0.00     0.000 OA
ATOM     13   O  A00 X   1     152.695 162.828 172.8570  0.00  0.00     0.000 OA
ATOM     14   O  A00 X   1     152.192 160.943 171.4960  0.00  0.00     0.000 OA
ATOM     15   S  A00 X   1     151.797 162.270 171.8830  0.00  0.00     0.000 S
ENDBRANCH 2 11
BRANCH 5 16
ATOM     16   C  A00 X   1     154.027 167.191 170.4920  0.00  0.00     0.000 C
ATOM     17   O  A00 X   1     153.690 167.486 171.6200  0.00  0.00     0.000 OA
ATOM     18   O  A00 X   1     155.210 167.080 170.2410  0.00  0.00     0.000 OA
ENDBRANCH 5 16
BRANCH 1 19
ATOM     19  O4  A00 X   2     154.762 164.206 169.3840  0.00  0.00     0.000 O
BRANCH 19 23
ATOM     20  C1  A00 X   2     155.009 162.354 165.5270  0.00  0.00     0.000 C
ATOM     21  C2  A00 X   2     154.792 161.431 166.7510  0.00  0.00     0.000 C
ATOM     22  C3  A00 X   2     154.298 162.240 167.9680  0.00  0.00     0.000 C
ATOM     23  C4  A00 X   2     155.256 163.415 168.2660  0.00  0.00     0.000 C
ATOM     24  C5  A00 X   2     155.404 164.248 166.9640  0.00  0.00     0.000 C
ATOM     25  O5  A00 X   2     155.943 163.395 165.9210  0.00  0.00     0.000 O
ATOM     26   O  A00 X   2     154.047 161.331 169.0540  0.00  0.00     0.000 O
ATOM     28  HD  A00 X   2     154.820 160.948 168.9790  0.00  0.00     0.000 HD
BRANCH 21 30
ATOM     28   N  A00 X   2     155.609 160.415 166.0810  0.00  0.00     0.000 N
ATOM     30  HD  A00 X   2     155.185 160.014 166.7210  0.00  0.00     0.000 HD
ATOM     30   O  A00 X   2     154.821 158.310 166.7200  0.00  0.00     0.000 OA
ATOM     31   S  A00 X   2     155.989 159.102 166.8760  0.00  0.00     0.000 S
ATOM     32   O  A00 X   2     157.145 158.614 166.1900  0.00  0.00     0.000 OA
ATOM     33   O  A00 X   2     156.332 159.499 168.2090  0.00  0.00     0.000 OA
ENDBRANCH 21 30
BRANCH 24 34
ATOM     34   C  A00 X   2     156.129 165.612 167.0530  0.00  0.00     0.000 C
ATOM     35   O  A00 X   2     159.247 166.382 165.3380  0.00  0.00     0.000 OA
ATOM     36   O  A00 X   2     157.486 165.515 166.5770  0.00  0.00     0.000 O
ATOM     37   O  A00 X   2     157.294 165.613 164.2470  0.00  0.00     0.000 OA
ATOM     38   S  A00 X   2     157.821 166.400 165.3210  0.00  0.00     0.000 S
ATOM     39   O  A00 X   2     157.227 167.681 165.5580  0.00  0.00     0.000 OA
ENDBRANCH 24 34
BRANCH 20 40
ATOM     40  O4  A00 X   3     153.728 162.939 165.2510  0.00  0.00     0.000 O
BRANCH 40 44
ATOM     41  C1  A00 X   3     151.845 165.922 164.4240  0.00  0.00     0.000 C
ATOM     42  C2  A00 X   3     151.225 164.529 164.6700  0.00  0.00     0.000 C
ATOM     43  C3  A00 X   3     151.936 163.446 163.8180  0.00  0.00     0.000 C
ATOM     44  C4  A00 X   3     153.456 163.451 163.9290  0.00  0.00     0.000 C
ATOM     45  C5  A00 X   3     154.004 164.881 163.6640  0.00  0.00     0.000 C
ATOM     46  O5  A00 X   3     153.298 165.871 164.4800  0.00  0.00     0.000 O
ATOM     47   O  A00 X   3     151.389 162.132 163.8990  0.00  0.00     0.000 O
ATOM     49  HD  A00 X   3     152.225 161.905 163.8810  0.00  0.00     0.000 HD
BRANCH 42 49
ATOM     49   O  A00 X   3     151.347 164.255 166.0830  0.00  0.00     0.000 O
ATOM     50   O  A00 X   3     150.843 162.426 167.5420  0.00  0.00     0.000 OA
ATOM     51   O  A00 X   3     149.294 162.996 165.8500  0.00  0.00     0.000 OA
ATOM     52   O  A00 X   3     149.610 164.503 167.6430  0.00  0.00     0.000 OA
ATOM     53   S  A00 X   3     150.216 163.499 166.8380  0.00  0.00     0.000 S
ENDBRANCH 42 49
BRANCH 45 54
ATOM     54   C  A00 X   3     154.004 165.222 162.1690  0.00  0.00     0.000 C
ATOM     55   O  A00 X   3     154.730 166.092 161.7330  0.00  0.00     0.000 OA
ATOM     56   O  A00 X   3     153.275 164.626 161.3920  0.00  0.00     0.000 OA
ENDBRANCH 45 54
BRANCH 41 57
ATOM     57  O4  A00 X   4     151.325 166.533 163.2220  0.00  0.00     0.000 O
BRANCH 57 61
ATOM     58  C1  A00 X   4     150.935 170.632 161.9220  0.00  0.00     0.000 C
ATOM     59  C2  A00 X   4     152.324 169.952 161.8250  0.00  0.00     0.000 C
ATOM     60  C3  A00 X   4     152.269 168.418 161.9700  0.00  0.00     0.000 C
ATOM     61  C4  A00 X   4     151.414 167.986 163.1800  0.00  0.00     0.000 C
ATOM     62  C5  A00 X   4     150.009 168.602 162.9630  0.00  0.00     0.000 C
ATOM     63  O5  A00 X   4     150.118 170.049 162.9630  0.00  0.00     0.000 O
BRANCH 59 66
ATOM     64   N  A00 X   4     153.206 170.413 162.9130  0.00  0.00     0.000 N
ATOM     66  HD  A00 X   4     152.831 170.664 163.6530  0.00  0.00     0.000 HD
ATOM     66   O  A00 X   4     153.663 172.366 161.5810  0.00  0.00     0.000 OA
ATOM     67   S  A00 X   4     154.275 171.557 162.5890  0.00  0.00     0.000 S
ATOM     68   O  A00 X   4     154.399 172.169 163.8800  0.00  0.00     0.000 OA
ATOM     69   O  A00 X   4     155.401 170.752 162.2090  0.00  0.00     0.000 OA
ENDBRANCH 59 66
BRANCH 62 70
ATOM     70   C  A00 X   4     148.966 168.188 164.0280  0.00  0.00     0.000 C
ATOM     71   O  A00 X   4     148.382 169.623 167.3000  0.00  0.00     0.000 OA
ATOM     72   O  A00 X   4     148.657 167.381 166.6350  0.00  0.00     0.000 OA
ATOM     73   O  A00 X   4     148.924 169.183 165.0640  0.00  0.00     0.000 O
ATOM     74   O  A00 X   4     150.600 168.846 166.7620  0.00  0.00     0.000 OA
ATOM     75   S  A00 X   4     149.196 168.719 166.5370  0.00  0.00     0.000 S
ENDBRANCH 62 70
ENDBRANCH 57 61
ENDBRANCH 41 57
ENDBRANCH 40 44
ENDBRANCH 20 40
ENDBRANCH 19 23
ENDBRANCH 1 19
TORSDOF 14
ENDMDL
MODEL 87
REMARK VINA RESULT:      -0.3    112.270    115.695
ROOT
ATOM      1  C1  A00 X   1     133.775   8.093 167.3820  0.00  0.00     0.000 C
ATOM      2  C2  A00 X   1     133.884   7.228 166.0990  0.00  0.00     0.000 C
ATOM      3  C3  A00 X   1     132.555   7.007 165.3040  0.00  0.00     0.000 C
ATOM      4  C4  A00 X   1     131.252   7.354 166.0700  0.00  0.00     0.000 C
ATOM      5  C5  A00 X   1     131.449   7.323 167.5860  0.00  0.00     0.000 C
ATOM      6  O5  A00 X   1     132.428   8.352 167.8510  0.00  0.00     0.000 O
ATOM      7   O  A00 X   1     132.459   5.630 164.9470  0.00  0.00     0.000 O
ATOM      9  HD  A00 X   1     131.670   5.884 165.1990  0.00  0.00     0.000 HD
ATOM      9   O  A00 X   1     130.739   8.627 165.6770  0.00  0.00     0.000 O
ATOM     11  HD  A00 X   1     129.950   8.880 165.9290  0.00  0.00     0.000 HD
ENDROOT
BRANCH 2 11
ATOM     11   O  A00 X   1     134.851   7.851 165.2310  0.00  0.00     0.000 O
ATOM     12   O  A00 X   1     135.222   7.084 162.9850  0.00  0.00     0.000 OA
ATOM     13   O  A00 X   1     135.738   5.607 164.8480  0.00  0.00     0.000 OA
ATOM     14   O  A00 X   1     137.038   7.562 164.4650  0.00  0.00     0.000 OA
ATOM     15   S  A00 X   1     135.748   6.944 164.3200  0.00  0.00     0.000 S
ENDBRANCH 2 11
BRANCH 5 16
ATOM     16   C  A00 X   1     131.826   5.955 168.1620  0.00  0.00     0.000 C
ATOM     17   O  A00 X   1     131.634   4.966 167.4850  0.00  0.00     0.000 OA
ATOM     18   O  A00 X   1     132.316   5.825 169.2670  0.00  0.00     0.000 OA
ENDBRANCH 5 16
BRANCH 1 19
ATOM     19  O4  A00 X   2     134.624   7.615 168.4550  0.00  0.00     0.000 O
BRANCH 19 23
ATOM     20  C1  A00 X   2     135.729  11.549 169.7490  0.00  0.00     0.000 C
ATOM     21  C2  A00 X   2     136.709  10.803 168.8120  0.00  0.00     0.000 C
ATOM     22  C3  A00 X   2     136.005   9.629 168.1010  0.00  0.00     0.000 C
ATOM     23  C4  A00 X   2     135.331   8.694 169.1310  0.00  0.00     0.000 C
ATOM     24  C5  A00 X   2     134.393   9.560 170.0150  0.00  0.00     0.000 C
ATOM     25  O5  A00 X   2     135.186  10.576 170.6820  0.00  0.00     0.000 O
ATOM     26   O  A00 X   2     136.935   9.014 167.1940  0.00  0.00     0.000 O
ATOM     28  HD  A00 X   2     137.554   8.945 167.7960  0.00  0.00     0.000 HD
BRANCH 21 30
ATOM     28   N  A00 X   2     137.822  11.436 169.5280  0.00  0.00     0.000 N
ATOM     30  HD  A00 X   2     138.144  11.127 168.7860  0.00  0.00     0.000 HD
ATOM     30   O  A00 X   2     139.568  11.765 168.0120  0.00  0.00     0.000 OA
ATOM     31   S  A00 X   2     139.299  10.997 169.1750  0.00  0.00     0.000 S
ATOM     32   O  A00 X   2     140.049  11.371 170.3330  0.00  0.00     0.000 OA
ATOM     33   O  A00 X   2     139.292   9.572 169.0250  0.00  0.00     0.000 OA
ENDBRANCH 21 30
BRANCH 24 34
ATOM     34   C  A00 X   2     133.426   8.831 170.9770  0.00  0.00     0.000 C
ATOM     35   O  A00 X   2     133.564   9.106 174.6050  0.00  0.00     0.000 OA
ATOM     36   O  A00 X   2     133.928   8.839 172.3280  0.00  0.00     0.000 O
ATOM     37   O  A00 X   2     133.365  10.957 173.1470  0.00  0.00     0.000 OA
ATOM     38   S  A00 X   2     133.024   9.586 173.3760  0.00  0.00     0.000 S
ATOM     39   O  A00 X   2     131.676   9.184 173.1070  0.00  0.00     0.000 OA
ENDBRANCH 24 34
BRANCH 20 40
ATOM     40  O4  A00 X   3     134.679  12.037 168.9020  0.00  0.00     0.000 O
BRANCH 40 44
ATOM     41  C1  A00 X   3     131.116  12.470 168.4100  0.00  0.00     0.000 C
ATOM     42  C2  A00 X   3     132.201  12.881 167.3920  0.00  0.00     0.000 C
ATOM     43  C3  A00 X   3     133.298  13.745 168.0660  0.00  0.00     0.000 C
ATOM     44  C4  A00 X   3     133.874  13.151 169.3460  0.00  0.00     0.000 C
ATOM     45  C5  A00 X   3     132.723  12.768 170.3200  0.00  0.00     0.000 C
ATOM     46  O5  A00 X   3     131.707  11.963 169.6380  0.00  0.00     0.000 O
ATOM     47   O  A00 X   3     134.309  14.255 167.2000  0.00  0.00     0.000 O
ATOM     49  HD  A00 X   3     134.821  14.069 167.8740  0.00  0.00     0.000 HD
BRANCH 42 49
ATOM     49   O  A00 X   3     132.751  11.662 166.8450  0.00  0.00     0.000 O
ATOM     50   O  A00 X   3     134.501  11.084 165.3180  0.00  0.00     0.000 OA
ATOM     51   O  A00 X   3     133.111  12.929 164.8140  0.00  0.00     0.000 OA
ATOM     52   O  A00 X   3     132.172  10.761 164.7550  0.00  0.00     0.000 OA
ATOM     53   S  A00 X   3     133.165  11.590 165.3460  0.00  0.00     0.000 S
ENDBRANCH 42 49
BRANCH 45 54
ATOM     54   C  A00 X   3     132.144  14.000 171.0250  0.00  0.00     0.000 C
ATOM     55   O  A00 X   3     132.273  15.107 170.5430  0.00  0.00     0.000 OA
ATOM     56   O  A00 X   3     131.545  13.891 172.0830  0.00  0.00     0.000 OA
ENDBRANCH 45 54
BRANCH 41 57
ATOM     57  O4  A00 X   4     130.150  13.526 168.6160  0.00  0.00     0.000 O
BRANCH 57 61
ATOM     58  C1  A00 X   4     126.032  13.553 169.9130  0.00  0.00     0.000 C
ATOM     59  C2  A00 X   4     127.144  13.388 170.9790  0.00  0.00     0.000 C
ATOM     60  C3  A00 X   4     128.551  13.750 170.4610  0.00  0.00     0.000 C
ATOM     61  C4  A00 X   4     128.848  13.087 169.0980  0.00  0.00     0.000 C
ATOM     62  C5  A00 X   4     127.732  13.556 168.1330  0.00  0.00     0.000 C
ATOM     63  O5  A00 X   4     126.451  13.075 168.6140  0.00  0.00     0.000 O
BRANCH 59 66
ATOM     64   N  A00 X   4     127.272  11.997 171.4510  0.00  0.00     0.000 N
ATOM     66  HD  A00 X   4     127.061  11.366 170.8980  0.00  0.00     0.000 HD
ATOM     66   O  A00 X   4     125.388  12.419 172.8900  0.00  0.00     0.000 OA
ATOM     67   S  A00 X   4     126.553  11.594 172.8220  0.00  0.00     0.000 S
ATOM     68   O  A00 X   4     126.311  10.201 172.5870  0.00  0.00     0.000 OA
ATOM     69   O  A00 X   4     127.615  11.858 173.7520  0.00  0.00     0.000 OA
ENDBRANCH 59 66
BRANCH 62 70
ATOM     70   C  A00 X   4     127.919  13.080 166.6720  0.00  0.00     0.000 C
ATOM     71   O  A00 X   4     126.947   9.928 165.1800  0.00  0.00     0.000 OA
ATOM     72   O  A00 X   4     128.991  11.095 165.1060  0.00  0.00     0.000 OA
ATOM     73   O  A00 X   4     127.166  11.873 166.4660  0.00  0.00     0.000 O
ATOM     74   O  A00 X   4     128.364   9.891 167.1300  0.00  0.00     0.000 OA
ATOM     75   S  A00 X   4     127.939  10.603 165.9680  0.00  0.00     0.000 S
ENDBRANCH 62 70
ENDBRANCH 57 61
ENDBRANCH 41 57
ENDBRANCH 40 44
ENDBRANCH 20 40
ENDBRANCH 19 23
ENDBRANCH 1 19
TORSDOF 14
ENDMDL
MODEL 88
REMARK VINA RESULT:      -0.3    110.041    114.597
ROOT
ATOM      1  C1  A00 X   1     189.222 139.327 118.7830  0.00  0.00     0.000 C
ATOM      2  C2  A00 X   1     188.324 140.493 119.2780  0.00  0.00     0.000 C
ATOM      3  C3  A00 X   1     187.541 140.240 120.6070  0.00  0.00     0.000 C
ATOM      4  C4  A00 X   1     187.462 138.761 121.0660  0.00  0.00     0.000 C
ATOM      5  C5  A00 X   1     187.672 137.785 119.9080  0.00  0.00     0.000 C
ATOM      6  O5  A00 X   1     189.013 138.053 119.4410  0.00  0.00     0.000 O
ATOM      7   O  A00 X   1     186.196 140.683 120.4370  0.00  0.00     0.000 O
ATOM      9  HD  A00 X   1     186.165 139.935 120.8720  0.00  0.00     0.000 HD
ATOM      9   O  A00 X   1     188.402 138.486 122.1050  0.00  0.00     0.000 O
ATOM     11  HD  A00 X   1     188.371 137.738 122.5400  0.00  0.00     0.000 HD
ENDROOT
BRANCH 2 11
ATOM     11   O  A00 X   1     189.162 141.653 119.4400  0.00  0.00     0.000 O
ATOM     12   O  A00 X   1     188.247 143.828 119.8870  0.00  0.00     0.000 OA
ATOM     13   O  A00 X   1     187.740 142.735 117.7750  0.00  0.00     0.000 OA
ATOM     14   O  A00 X   1     189.945 143.496 118.2390  0.00  0.00     0.000 OA
ATOM     15   S  A00 X   1     188.712 143.010 118.7960  0.00  0.00     0.000 S
ENDBRANCH 2 11
BRANCH 5 16
ATOM     16   C  A00 X   1     186.613 137.854 118.8030  0.00  0.00     0.000 C
ATOM     17   O  A00 X   1     185.559 138.406 119.0420  0.00  0.00     0.000 OA
ATOM     18   O  A00 X   1     186.793 137.383 117.6980  0.00  0.00     0.000 OA
ENDBRANCH 5 16
BRANCH 1 19
ATOM     19  O4  A00 X   2     189.214 139.185 117.3420  0.00  0.00     0.000 O
BRANCH 19 23
ATOM     20  C1  A00 X   2     193.323 137.986 117.1310  0.00  0.00     0.000 C
ATOM     21  C2  A00 X   2     192.996 139.472 116.8430  0.00  0.00     0.000 C
ATOM     22  C3  A00 X   2     191.593 139.838 117.3690  0.00  0.00     0.000 C
ATOM     23  C4  A00 X   2     190.530 138.869 116.8040  0.00  0.00     0.000 C
ATOM     24  C5  A00 X   2     190.981 137.421 117.1410  0.00  0.00     0.000 C
ATOM     25  O5  A00 X   2     192.275 137.180 116.5290  0.00  0.00     0.000 O
ATOM     26   O  A00 X   2     191.366 141.239 117.1400  0.00  0.00     0.000 O
ATOM     28  HD  A00 X   2     191.599 141.192 116.3080  0.00  0.00     0.000 HD
BRANCH 21 30
ATOM     28   N  A00 X   2     194.063 139.491 115.8360  0.00  0.00     0.000 N
ATOM     30  HD  A00 X   2     193.880 140.316 116.0240  0.00  0.00     0.000 HD
ATOM     30   O  A00 X   2     195.010 141.626 115.8210  0.00  0.00     0.000 OA
ATOM     31   S  A00 X   2     194.253 140.791 114.9580  0.00  0.00     0.000 S
ATOM     32   O  A00 X   2     194.955 140.320 113.8040  0.00  0.00     0.000 OA
ATOM     33   O  A00 X   2     192.946 141.249 114.5910  0.00  0.00     0.000 OA
ENDBRANCH 21 30
BRANCH 24 34
ATOM     34   C  A00 X   2     189.977 136.271 116.8870  0.00  0.00     0.000 C
ATOM     35   O  A00 X   2     189.053 135.063 113.5780  0.00  0.00     0.000 OA
ATOM     36   O  A00 X   2     189.544 136.250 115.5120  0.00  0.00     0.000 O
ATOM     37   O  A00 X   2     191.279 135.173 114.3710  0.00  0.00     0.000 OA
ATOM     38   S  A00 X   2     189.908 134.945 114.7140  0.00  0.00     0.000 S
ATOM     39   O  A00 X   2     189.615 133.845 115.5820  0.00  0.00     0.000 OA
ENDBRANCH 24 34
BRANCH 20 40
ATOM     40  O4  A00 X   3     193.275 137.848 118.5580  0.00  0.00     0.000 O
BRANCH 40 44
ATOM     41  C1  A00 X   3     192.318 135.929 121.4780  0.00  0.00     0.000 C
ATOM     42  C2  A00 X   3     193.027 137.300 121.5190  0.00  0.00     0.000 C
ATOM     43  C3  A00 X   3     194.282 137.303 120.6090  0.00  0.00     0.000 C
ATOM     44  C4  A00 X   3     194.039 136.800 119.1920  0.00  0.00     0.000 C
ATOM     45  C5  A00 X   3     193.329 135.418 119.2330  0.00  0.00     0.000 C
ATOM     46  O5  A00 X   3     192.157 135.458 120.1110  0.00  0.00     0.000 O
ATOM     47   O  A00 X   3     195.068 138.494 120.6360  0.00  0.00     0.000 O
ATOM     49  HD  A00 X   3     195.135 138.334 119.7880  0.00  0.00     0.000 HD
BRANCH 42 49
ATOM     49   O  A00 X   3     192.063 138.288 121.0930  0.00  0.00     0.000 O
ATOM     50   O  A00 X   3     192.063 140.648 120.6930  0.00  0.00     0.000 OA
ATOM     51   O  A00 X   3     193.210 139.812 122.5830  0.00  0.00     0.000 OA
ATOM     52   O  A00 X   3     190.851 139.678 122.5460  0.00  0.00     0.000 OA
ATOM     53   S  A00 X   3     192.034 139.695 121.7580  0.00  0.00     0.000 S
ENDBRANCH 42 49
BRANCH 45 54
ATOM     54   C  A00 X   3     194.305 134.288 119.5820  0.00  0.00     0.000 C
ATOM     55   O  A00 X   3     195.483 134.522 119.7640  0.00  0.00     0.000 OA
ATOM     56   O  A00 X   3     193.917 133.134 119.6820  0.00  0.00     0.000 OA
ENDBRANCH 45 54
BRANCH 41 57
ATOM     57  O4  A00 X   4     192.951 134.973 122.3570  0.00  0.00     0.000 O
BRANCH 57 61
ATOM     58  C1  A00 X   4     191.428 131.720 124.7520  0.00  0.00     0.000 C
ATOM     59  C2  A00 X   4     191.265 131.647 123.2140  0.00  0.00     0.000 C
ATOM     60  C3  A00 X   4     192.146 132.659 122.4540  0.00  0.00     0.000 C
ATOM     61  C4  A00 X   4     192.040 134.077 123.0550  0.00  0.00     0.000 C
ATOM     62  C5  A00 X   4     192.448 133.950 124.5440  0.00  0.00     0.000 C
ATOM     63  O5  A00 X   4     191.505 133.084 125.2250  0.00  0.00     0.000 O
BRANCH 59 66
ATOM     64   N  A00 X   4     189.876 131.973 122.8410  0.00  0.00     0.000 N
ATOM     66  HD  A00 X   4     189.431 132.494 123.3710  0.00  0.00     0.000 HD
ATOM     66   O  A00 X   4     189.309 129.690 123.3550  0.00  0.00     0.000 OA
ATOM     67   S  A00 X   4     188.875 130.767 122.5210  0.00  0.00     0.000 S
ATOM     68   O  A00 X   4     187.625 131.365 122.8870  0.00  0.00     0.000 OA
ATOM     69   O  A00 X   4     189.075 130.640 121.1050  0.00  0.00     0.000 OA
ENDBRANCH 59 66
BRANCH 62 70
ATOM     70   C  A00 X   4     192.511 135.300 125.2990  0.00  0.00     0.000 C
ATOM     71   O  A00 X   4     189.785 137.468 126.2850  0.00  0.00     0.000 OA
ATOM     72   O  A00 X   4     191.801 137.950 125.1690  0.00  0.00     0.000 OA
ATOM     73   O  A00 X   4     191.184 135.685 125.6940  0.00  0.00     0.000 O
ATOM     74   O  A00 X   4     189.989 136.857 123.9620  0.00  0.00     0.000 OA
ATOM     75   S  A00 X   4     190.649 137.076 125.2080  0.00  0.00     0.000 S
ENDBRANCH 62 70
ENDBRANCH 57 61
ENDBRANCH 41 57
ENDBRANCH 40 44
ENDBRANCH 20 40
ENDBRANCH 19 23
ENDBRANCH 1 19
TORSDOF 14
ENDMDL
MODEL 89
REMARK VINA RESULT:      -0.3    109.217    114.343
ROOT
ATOM      1  C1  A00 X   1     189.222 139.327 118.7830  0.00  0.00     0.000 C
ATOM      2  C2  A00 X   1     188.357 140.161 119.7650  0.00  0.00     0.000 C
ATOM      3  C3  A00 X   1     187.995 139.470 121.1200  0.00  0.00     0.000 C
ATOM      4  C4  A00 X   1     188.220 137.936 121.1690  0.00  0.00     0.000 C
ATOM      5  C5  A00 X   1     188.228 137.309 119.7750  0.00  0.00     0.000 C
ATOM      6  O5  A00 X   1     189.352 137.920 119.1040  0.00  0.00     0.000 O
ATOM      7   O  A00 X   1     186.611 139.684 121.3880  0.00  0.00     0.000 O
ATOM      9  HD  A00 X   1     186.788 138.863 121.6000  0.00  0.00     0.000 HD
ATOM      9   O  A00 X   1     189.430 137.609 121.8520  0.00  0.00     0.000 O
ATOM     11  HD  A00 X   1     189.608 136.788 122.0650  0.00  0.00     0.000 HD
ENDROOT
BRANCH 2 11
ATOM     11   O  A00 X   1     189.062 141.388 120.0380  0.00  0.00     0.000 O
ATOM     12   O  A00 X   1     188.045 143.194 121.2510  0.00  0.00     0.000 OA
ATOM     13   O  A00 X   1     187.125 142.541 119.0960  0.00  0.00     0.000 OA
ATOM     14   O  A00 X   1     189.266 143.569 119.2300  0.00  0.00     0.000 OA
ATOM     15   S  A00 X   1     188.295 142.749 119.9030  0.00  0.00     0.000 S
ENDBRANCH 2 11
BRANCH 5 16
ATOM     16   C  A00 X   1     186.911 137.433 119.0020  0.00  0.00     0.000 C
ATOM     17   O  A00 X   1     185.901 137.711 119.6160  0.00  0.00     0.000 OA
ATOM     18   O  A00 X   1     186.843 137.270 117.8000  0.00  0.00     0.000 OA
ENDBRANCH 5 16
BRANCH 1 19
ATOM     19  O4  A00 X   2     188.845 139.521 117.3980  0.00  0.00     0.000 O
BRANCH 19 23
ATOM     20  C1  A00 X   2     192.860 139.183 115.9380  0.00  0.00     0.000 C
ATOM     21  C2  A00 X   2     192.292 140.608 116.1430  0.00  0.00     0.000 C
ATOM     22  C3  A00 X   2     191.048 140.578 117.0560  0.00  0.00     0.000 C
ATOM     23  C4  A00 X   2     189.997 139.586 116.5090  0.00  0.00     0.000 C
ATOM     24  C5  A00 X   2     190.692 138.208 116.3310  0.00  0.00     0.000 C
ATOM     25  O5  A00 X   2     191.794 138.357 115.3990  0.00  0.00     0.000 O
ATOM     26   O  A00 X   2     190.600 141.927 117.2700  0.00  0.00     0.000 O
ATOM     28  HD  A00 X   2     190.605 142.117 116.4250  0.00  0.00     0.000 HD
BRANCH 21 30
ATOM     28   N  A00 X   2     193.039 141.054 114.9630  0.00  0.00     0.000 N
ATOM     30  HD  A00 X   2     192.815 141.767 115.4020  0.00  0.00     0.000 HD
ATOM     30   O  A00 X   2     193.683 143.274 115.3070  0.00  0.00     0.000 OA
ATOM     31   S  A00 X   2     192.828 142.534 114.4470  0.00  0.00     0.000 S
ATOM     32   O  A00 X   2     193.247 142.478 113.0810  0.00  0.00     0.000 OA
ATOM     33   O  A00 X   2     191.426 142.815 114.5270  0.00  0.00     0.000 OA
ENDBRANCH 21 30
BRANCH 24 34
ATOM     34   C  A00 X   2     189.803 136.982 116.0140  0.00  0.00     0.000 C
ATOM     35   O  A00 X   2     188.177 136.417 112.8050  0.00  0.00     0.000 OA
ATOM     36   O  A00 X   2     189.022 137.198 114.8210  0.00  0.00     0.000 O
ATOM     37   O  A00 X   2     190.504 136.751 113.0670  0.00  0.00     0.000 OA
ATOM     38   S  A00 X   2     189.313 136.201 113.6400  0.00  0.00     0.000 S
ATOM     39   O  A00 X   2     189.399 134.896 114.2230  0.00  0.00     0.000 OA
ENDBRANCH 24 34
BRANCH 20 40
ATOM     40  O4  A00 X   3     193.214 138.714 117.2480  0.00  0.00     0.000 O
BRANCH 40 44
ATOM     41  C1  A00 X   3     193.313 136.033 119.6810  0.00  0.00     0.000 C
ATOM     42  C2  A00 X   3     193.837 137.464 119.9270  0.00  0.00     0.000 C
ATOM     43  C3  A00 X   3     194.792 137.909 118.7900  0.00  0.00     0.000 C
ATOM     44  C4  A00 X   3     194.240 137.708 117.3840  0.00  0.00     0.000 C
ATOM     45  C5  A00 X   3     193.738 136.246 117.2130  0.00  0.00     0.000 C
ATOM     46  O5  A00 X   3     192.849 135.867 118.3130  0.00  0.00     0.000 O
ATOM     47   O  A00 X   3     195.407 139.185 118.9560  0.00  0.00     0.000 O
ATOM     49  HD  A00 X   3     195.262 139.240 118.1040  0.00  0.00     0.000 HD
BRANCH 42 49
ATOM     49   O  A00 X   3     192.683 138.328 120.0150  0.00  0.00     0.000 O
ATOM     50   O  A00 X   3     192.291 140.675 120.2750  0.00  0.00     0.000 OA
ATOM     51   O  A00 X   3     193.995 139.654 121.5560  0.00  0.00     0.000 OA
ATOM     52   O  A00 X   3     191.746 139.099 122.0260  0.00  0.00     0.000 OA
ATOM     53   S  A00 X   3     192.664 139.515 121.0220  0.00  0.00     0.000 S
ENDBRANCH 42 49
BRANCH 45 54
ATOM     54   C  A00 X   3     194.901 135.267 117.0120  0.00  0.00     0.000 C
ATOM     55   O  A00 X   3     196.047 135.667 116.9760  0.00  0.00     0.000 OA
ATOM     56   O  A00 X   3     194.696 134.070 116.8830  0.00  0.00     0.000 OA
ENDBRANCH 45 54
BRANCH 41 57
ATOM     57  O4  A00 X   4     194.269 135.034 120.1020  0.00  0.00     0.000 O
BRANCH 57 61
ATOM     58  C1  A00 X   4     193.847 131.094 121.8160  0.00  0.00     0.000 C
ATOM     59  C2  A00 X   4     193.287 131.348 120.3940  0.00  0.00     0.000 C
ATOM     60  C3  A00 X   4     193.803 132.653 119.7540  0.00  0.00     0.000 C
ATOM     61  C4  A00 X   4     193.693 133.850 120.7230  0.00  0.00     0.000 C
ATOM     62  C5  A00 X   4     194.498 133.462 121.9880  0.00  0.00     0.000 C
ATOM     63  O5  A00 X   4     193.883 132.303 122.6080  0.00  0.00     0.000 O
BRANCH 59 66
ATOM     64   N  A00 X   4     191.820 131.488 120.4510  0.00  0.00     0.000 N
ATOM     66  HD  A00 X   4     191.475 131.782 121.1880  0.00  0.00     0.000 HD
ATOM     66   O  A00 X   4     191.691 129.084 120.4470  0.00  0.00     0.000 OA
ATOM     67   S  A00 X   4     190.923 130.224 120.0560  0.00  0.00     0.000 S
ATOM     68   O  A00 X   4     189.754 130.481 120.8450  0.00  0.00     0.000 OA
ATOM     69   O  A00 X   4     190.750 130.466 118.6510  0.00  0.00     0.000 OA
ENDBRANCH 59 66
BRANCH 62 70
ATOM     70   C  A00 X   4     194.598 134.589 123.0430  0.00  0.00     0.000 C
ATOM     71   O  A00 X   4     191.996 135.931 125.1730  0.00  0.00     0.000 OA
ATOM     72   O  A00 X   4     193.566 137.020 123.7970  0.00  0.00     0.000 OA
ATOM     73   O  A00 X   4     193.390 134.622 123.8200  0.00  0.00     0.000 O
ATOM     74   O  A00 X   4     191.641 135.919 122.7880  0.00  0.00     0.000 OA
ATOM     75   S  A00 X   4     192.581 135.964 123.8620  0.00  0.00     0.000 S
ENDBRANCH 62 70
ENDBRANCH 57 61
ENDBRANCH 41 57
ENDBRANCH 40 44
ENDBRANCH 20 40
ENDBRANCH 19 23
ENDBRANCH 1 19
TORSDOF 14
ENDMDL
MODEL 90
REMARK VINA RESULT:      -0.3    177.293    183.382
ROOT
ATOM      1  C1  A00 X   1      27.639 156.230 131.9240  0.00  0.00     0.000 C
ATOM      2  C2  A00 X   1      27.603 157.378 132.9670  0.00  0.00     0.000 C
ATOM      3  C3  A00 X   1      28.964 157.723 133.6570  0.00  0.00     0.000 C
ATOM      4  C4  A00 X   1      30.082 156.661 133.4990  0.00  0.00     0.000 C
ATOM      5  C5  A00 X   1      29.520 155.274 133.1870  0.00  0.00     0.000 C
ATOM      6  O5  A00 X   1      28.846 155.428 131.9180  0.00  0.00     0.000 O
ATOM      7   O  A00 X   1      28.742 157.871 135.0580  0.00  0.00     0.000 O
ATOM      9  HD  A00 X   1      29.483 157.434 134.9620  0.00  0.00     0.000 HD
ATOM      9   O  A00 X   1      31.021 157.039 132.4920  0.00  0.00     0.000 O
ATOM     11  HD  A00 X   1      31.763 156.602 132.3960  0.00  0.00     0.000 HD
ENDROOT
BRANCH 2 11
ATOM     11   O  A00 X   1      27.100 158.556 132.3060  0.00  0.00     0.000 O
ATOM     12   O  A00 X   1      26.659 160.592 133.5000  0.00  0.00     0.000 OA
ATOM     13   O  A00 X   1      25.363 158.602 134.0230  0.00  0.00     0.000 OA
ATOM     14   O  A00 X   1      25.098 159.696 131.9280  0.00  0.00     0.000 OA
ATOM     15   S  A00 X   1      25.994 159.410 133.0160  0.00  0.00     0.000 S
ENDBRANCH 2 11
BRANCH 5 16
ATOM     16   C  A00 X   1      28.635 154.672 134.2830  0.00  0.00     0.000 C
ATOM     17   O  A00 X   1      28.690 155.145 135.3990  0.00  0.00     0.000 OA
ATOM     18   O  A00 X   1      27.877 153.746 134.0730  0.00  0.00     0.000 OA
ENDBRANCH 5 16
BRANCH 1 19
ATOM     19  O4  A00 X   2      26.453 155.399 131.9620  0.00  0.00     0.000 O
BRANCH 19 23
ATOM     20  C1  A00 X   2      26.360 154.817 127.7170  0.00  0.00     0.000 C
ATOM     21  C2  A00 X   2      25.421 155.895 128.3110  0.00  0.00     0.000 C
ATOM     22  C3  A00 X   2      25.866 156.286 129.7360  0.00  0.00     0.000 C
ATOM     23  C4  A00 X   2      25.984 155.033 130.6320  0.00  0.00     0.000 C
ATOM     24  C5  A00 X   2      26.932 154.029 129.9210  0.00  0.00     0.000 C
ATOM     25  O5  A00 X   2      26.366 153.687 128.6290  0.00  0.00     0.000 O
ATOM     26   O  A00 X   2      25.007 157.335 130.2150  0.00  0.00     0.000 O
ATOM     28  HD  A00 X   2      24.284 156.905 130.0100  0.00  0.00     0.000 HD
BRANCH 21 30
ATOM     28   N  A00 X   2      24.436 155.551 127.2810  0.00  0.00     0.000 N
ATOM     30  HD  A00 X   2      24.196 156.314 127.6120  0.00  0.00     0.000 HD
ATOM     30   O  A00 X   2      23.235 157.483 126.7500  0.00  0.00     0.000 OA
ATOM     31   S  A00 X   2      23.004 156.217 127.3490  0.00  0.00     0.000 S
ATOM     32   O  A00 X   2      22.181 155.329 126.5870  0.00  0.00     0.000 OA
ATOM     33   O  A00 X   2      22.600 156.213 128.7230  0.00  0.00     0.000 OA
ENDBRANCH 21 30
BRANCH 24 34
ATOM     34   C  A00 X   2      27.401 152.787 130.7150  0.00  0.00     0.000 C
ATOM     35   O  A00 X   2      25.147 150.318 132.1600  0.00  0.00     0.000 OA
ATOM     36   O  A00 X   2      26.312 152.198 131.4550  0.00  0.00     0.000 O
ATOM     37   O  A00 X   2      25.156 150.921 129.8730  0.00  0.00     0.000 OA
ATOM     38   S  A00 X   2      25.946 150.723 131.0500  0.00  0.00     0.000 S
ATOM     39   O  A00 X   2      27.187 150.023 130.9070  0.00  0.00     0.000 OA
ENDBRANCH 24 34
BRANCH 20 40
ATOM     40  O4  A00 X   3      27.664 155.414 127.6850  0.00  0.00     0.000 O
BRANCH 40 44
ATOM     41  C1  A00 X   3      31.191 154.978 128.3880  0.00  0.00     0.000 C
ATOM     42  C2  A00 X   3      30.553 156.283 127.8650  0.00  0.00     0.000 C
ATOM     43  C3  A00 X   3      29.672 156.009 126.6190  0.00  0.00     0.000 C
ATOM     44  C4  A00 X   3      28.665 154.879 126.7920  0.00  0.00     0.000 C
ATOM     45  C5  A00 X   3      29.382 153.603 127.3150  0.00  0.00     0.000 C
ATOM     46  O5  A00 X   3      30.209 153.910 128.4840  0.00  0.00     0.000 O
ATOM     47   O  A00 X   3      29.099 157.157 125.9960  0.00  0.00     0.000 O
ATOM     49  HD  A00 X   3      28.418 156.630 125.9080  0.00  0.00     0.000 HD
BRANCH 42 49
ATOM     49   O  A00 X   3      29.777 156.839 128.9490  0.00  0.00     0.000 O
ATOM     50   O  A00 X   3      28.332 158.723 129.2570  0.00  0.00     0.000 OA
ATOM     51   O  A00 X   3      30.323 159.003 128.0130  0.00  0.00     0.000 OA
ATOM     52   O  A00 X   3      30.493 158.594 130.3350  0.00  0.00     0.000 OA
ATOM     53   S  A00 X   3      29.716 158.380 129.1630  0.00  0.00     0.000 S
ENDBRANCH 42 49
BRANCH 45 54
ATOM     54   C  A00 X   3      30.154 152.888 126.2000  0.00  0.00     0.000 C
ATOM     55   O  A00 X   3      30.427 153.466 125.1680  0.00  0.00     0.000 OA
ATOM     56   O  A00 X   3      30.507 151.726 126.3290  0.00  0.00     0.000 OA
ENDBRANCH 45 54
BRANCH 41 57
ATOM     57  O4  A00 X   4      32.374 154.623 127.6370  0.00  0.00     0.000 O
BRANCH 57 61
ATOM     58  C1  A00 X   4      35.952 152.418 128.6230  0.00  0.00     0.000 C
ATOM     59  C2  A00 X   4      34.651 151.629 128.3360  0.00  0.00     0.000 C
ATOM     60  C3  A00 X   4      33.556 152.476 127.6550  0.00  0.00     0.000 C
ATOM     61  C4  A00 X   4      33.354 153.831 128.3660  0.00  0.00     0.000 C
ATOM     62  C5  A00 X   4      34.732 154.539 128.3530  0.00  0.00     0.000 C
ATOM     63  O5  A00 X   4      35.681 153.750 129.1160  0.00  0.00     0.000 O
BRANCH 59 66
ATOM     64   N  A00 X   4      34.062 151.163 129.6040  0.00  0.00     0.000 N
ATOM     66  HD  A00 X   4      34.224 151.628 130.3160  0.00  0.00     0.000 HD
ATOM     66   O  A00 X   4      35.604 149.315 129.5250  0.00  0.00     0.000 OA
ATOM     67   S  A00 X   4      34.313 149.645 130.0430  0.00  0.00     0.000 S
ATOM     68   O  A00 X   4      34.235 149.773 131.4690  0.00  0.00     0.000 OA
ATOM     69   O  A00 X   4      33.170 149.016 129.4450  0.00  0.00     0.000 OA
ENDBRANCH 59 66
BRANCH 62 70
ATOM     70   C  A00 X   4      34.710 155.975 128.9300  0.00  0.00     0.000 C
ATOM     71   O  A00 X   4      35.244 157.048 132.3460  0.00  0.00     0.000 OA
ATOM     72   O  A00 X   4      33.538 157.590 130.8160  0.00  0.00     0.000 OA
ATOM     73   O  A00 X   4      35.216 155.954 130.2740  0.00  0.00     0.000 O
ATOM     74   O  A00 X   4      33.529 155.411 131.9070  0.00  0.00     0.000 OA
ATOM     75   S  A00 X   4      34.293 156.511 131.4130  0.00  0.00     0.000 S
ENDBRANCH 62 70
ENDBRANCH 57 61
ENDBRANCH 41 57
ENDBRANCH 40 44
ENDBRANCH 20 40
ENDBRANCH 19 23
ENDBRANCH 1 19
TORSDOF 14
ENDMDL
MODEL 91
REMARK VINA RESULT:      -0.3    111.936    115.669
ROOT
ATOM      1  C1  A00 X   1     132.913   6.605 167.1440  0.00  0.00     0.000 C
ATOM      2  C2  A00 X   1     133.295   5.783 165.8840  0.00  0.00     0.000 C
ATOM      3  C3  A00 X   1     132.209   5.703 164.7610  0.00  0.00     0.000 C
ATOM      4  C4  A00 X   1     130.779   6.128 165.1820  0.00  0.00     0.000 C
ATOM      5  C5  A00 X   1     130.567   6.024 166.6920  0.00  0.00     0.000 C
ATOM      6  O5  A00 X   1     131.513   6.957 167.2610  0.00  0.00     0.000 O
ATOM      7   O  A00 X   1     132.114   4.353 164.3110  0.00  0.00     0.000 O
ATOM      9  HD  A00 X   1     131.307   4.662 164.3650  0.00  0.00     0.000 HD
ATOM      9   O  A00 X   1     130.477   7.452 164.7430  0.00  0.00     0.000 O
ATOM     11  HD  A00 X   1     129.670   7.761 164.7960  0.00  0.00     0.000 HD
ENDROOT
BRANCH 2 11
ATOM     11   O  A00 X   1     134.497   6.356 165.3340  0.00  0.00     0.000 O
ATOM     12   O  A00 X   1     135.392   5.645 163.2220  0.00  0.00     0.000 OA
ATOM     13   O  A00 X   1     135.295   4.063 165.0660  0.00  0.00     0.000 OA
ATOM     14   O  A00 X   1     136.783   5.917 165.1460  0.00  0.00     0.000 OA
ATOM     15   S  A00 X   1     135.537   5.412 164.6360  0.00  0.00     0.000 S
ENDBRANCH 2 11
BRANCH 5 16
ATOM     16   C  A00 X   1     130.683   4.608 167.2660  0.00  0.00     0.000 C
ATOM     17   O  A00 X   1     130.737   4.472 168.4710  0.00  0.00     0.000 OA
ATOM     18   O  A00 X   1     130.715   3.619 166.5610  0.00  0.00     0.000 OA
ENDBRANCH 5 16
BRANCH 1 19
ATOM     19  O4  A00 X   2     133.415   6.019 168.3690  0.00  0.00     0.000 O
BRANCH 19 23
ATOM     20  C1  A00 X   2     134.431   9.795 170.1230  0.00  0.00     0.000 C
ATOM     21  C2  A00 X   2     135.565   9.000 169.4330  0.00  0.00     0.000 C
ATOM     22  C3  A00 X   2     134.987   7.916 168.4990  0.00  0.00     0.000 C
ATOM     23  C4  A00 X   2     133.998   7.009 169.2650  0.00  0.00     0.000 C
ATOM     24  C5  A00 X   2     132.928   7.923 169.9220  0.00  0.00     0.000 C
ATOM     25  O5  A00 X   2     133.591   8.843 170.8280  0.00  0.00     0.000 O
ATOM     26   O  A00 X   2     136.075   7.254 167.8310  0.00  0.00     0.000 O
ATOM     28  HD  A00 X   2     136.506   7.111 168.5690  0.00  0.00     0.000 HD
BRANCH 21 30
ATOM     28   N  A00 X   2     136.492   9.517 170.4440  0.00  0.00     0.000 N
ATOM     30  HD  A00 X   2     136.976   9.202 169.7990  0.00  0.00     0.000 HD
ATOM     30   O  A00 X   2     138.598   9.737 169.4570  0.00  0.00     0.000 OA
ATOM     31   S  A00 X   2     137.973   8.963 170.4700  0.00  0.00     0.000 S
ATOM     32   O  A00 X   2     138.415   9.241 171.8020  0.00  0.00     0.000 OA
ATOM     33   O  A00 X   2     137.900   7.549 170.2550  0.00  0.00     0.000 OA
ENDBRANCH 21 30
BRANCH 24 34
ATOM     34   C  A00 X   2     131.689   7.248 170.5580  0.00  0.00     0.000 C
ATOM     35   O  A00 X   2     130.855   7.435 174.0970  0.00  0.00     0.000 OA
ATOM     36   O  A00 X   2     131.805   7.190 171.9940  0.00  0.00     0.000 O
ATOM     37   O  A00 X   2     131.183   9.326 172.7150  0.00  0.00     0.000 OA
ATOM     38   S  A00 X   2     130.702   7.980 172.7880  0.00  0.00     0.000 S
ATOM     39   O  A00 X   2     129.454   7.686 172.1500  0.00  0.00     0.000 OA
ENDBRANCH 24 34
BRANCH 20 40
ATOM     40  O4  A00 X   3     133.681  10.402 169.0610  0.00  0.00     0.000 O
BRANCH 40 44
ATOM     41  C1  A00 X   3     130.444  11.224 167.6560  0.00  0.00     0.000 C
ATOM     42  C2  A00 X   3     131.800  11.549 166.9920  0.00  0.00     0.000 C
ATOM     43  C3  A00 X   3     132.746  12.270 167.9860  0.00  0.00     0.000 C
ATOM     44  C4  A00 X   3     132.893  11.580 169.3360  0.00  0.00     0.000 C
ATOM     45  C5  A00 X   3     131.490  11.292 169.9410  0.00  0.00     0.000 C
ATOM     46  O5  A00 X   3     130.628  10.620 168.9660  0.00  0.00     0.000 O
ATOM     47   O  A00 X   3     133.999  12.697 167.4550  0.00  0.00     0.000 O
ATOM     49  HD  A00 X   3     134.288  12.438 168.2290  0.00  0.00     0.000 HD
BRANCH 42 49
ATOM     49   O  A00 X   3     132.362  10.296 166.5430  0.00  0.00     0.000 O
ATOM     50   O  A00 X   3     134.385   9.588 165.4770  0.00  0.00     0.000 OA
ATOM     51   O  A00 X   3     133.335  11.570 164.7300  0.00  0.00     0.000 OA
ATOM     52   O  A00 X   3     132.255   9.505 164.3350  0.00  0.00     0.000 OA
ATOM     53   S  A00 X   3     133.135  10.220 165.1940  0.00  0.00     0.000 S
ENDBRANCH 42 49
BRANCH 45 54
ATOM     54   C  A00 X   3     130.858  12.556 170.5360  0.00  0.00     0.000 C
ATOM     55   O  A00 X   3     131.363  13.645 170.3530  0.00  0.00     0.000 OA
ATOM     56   O  A00 X   3     129.837  12.490 171.2030  0.00  0.00     0.000 OA
ENDBRANCH 45 54
BRANCH 41 57
ATOM     57  O4  A00 X   4     129.562  12.369 167.6560  0.00  0.00     0.000 O
BRANCH 57 61
ATOM     58  C1  A00 X   4     125.276  12.777 167.3410  0.00  0.00     0.000 C
ATOM     59  C2  A00 X   4     125.860  12.006 168.5510  0.00  0.00     0.000 C
ATOM     60  C3  A00 X   4     127.373  12.230 168.7510  0.00  0.00     0.000 C
ATOM     61  C4  A00 X   4     128.156  12.066 167.4310  0.00  0.00     0.000 C
ATOM     62  C5  A00 X   4     127.543  13.077 166.4310  0.00  0.00     0.000 C
ATOM     63  O5  A00 X   4     126.154  12.732 166.1940  0.00  0.00     0.000 O
BRANCH 59 66
ATOM     64   N  A00 X   4     125.500  11.747 169.9570  0.00  0.00     0.000 N
ATOM     66  HD  A00 X   4     125.942  11.133 170.3770  0.00  0.00     0.000 HD
ATOM     66   O  A00 X   4     123.441  10.794 169.1480  0.00  0.00     0.000 OA
ATOM     67   S  A00 X   4     123.966  11.453 170.3030  0.00  0.00     0.000 S
ATOM     68   O  A00 X   4     124.117  10.630 171.4680  0.00  0.00     0.000 OA
ATOM     69   O  A00 X   4     123.509  12.785 170.5790  0.00  0.00     0.000 OA
ENDBRANCH 59 66
BRANCH 62 70
ATOM     70   C  A00 X   4     128.273  13.141 165.0680  0.00  0.00     0.000 C
ATOM     71   O  A00 X   4     128.382  10.650 162.4430  0.00  0.00     0.000 OA
ATOM     72   O  A00 X   4     130.113  11.867 163.4760  0.00  0.00     0.000 OA
ATOM     73   O  A00 X   4     127.841  12.044 164.2460  0.00  0.00     0.000 O
ATOM     74   O  A00 X   4     129.069  10.013 164.6640  0.00  0.00     0.000 OA
ATOM     75   S  A00 X   4     128.935  11.060 163.7030  0.00  0.00     0.000 S
ENDBRANCH 62 70
ENDBRANCH 57 61
ENDBRANCH 41 57
ENDBRANCH 40 44
ENDBRANCH 20 40
ENDBRANCH 19 23
ENDBRANCH 1 19
TORSDOF 14
ENDMDL
MODEL 92
REMARK VINA RESULT:      -0.3     86.757     92.933
ROOT
ATOM      1  C1  A00 X   1      67.042  22.510  71.6940  0.00  0.00     0.000 C
ATOM      2  C2  A00 X   1      65.534  22.451  71.3330  0.00  0.00     0.000 C
ATOM      3  C3  A00 X   1      65.186  21.861  69.9270  0.00  0.00     0.000 C
ATOM      4  C4  A00 X   1      66.373  21.753  68.9350  0.00  0.00     0.000 C
ATOM      5  C5  A00 X   1      67.510  22.713  69.2890  0.00  0.00     0.000 C
ATOM      6  O5  A00 X   1      67.958  22.285  70.5940  0.00  0.00     0.000 O
ATOM      7   O  A00 X   1      64.215  22.701  69.3060  0.00  0.00     0.000 O
ATOM      9  HD  A00 X   1      64.787  22.477  68.6950  0.00  0.00     0.000 HD
ATOM      9   O  A00 X   1      66.874  20.418  68.8640  0.00  0.00     0.000 O
ATOM     11  HD  A00 X   1      67.446  20.194  68.2540  0.00  0.00     0.000 HD
ENDROOT
BRANCH 2 11
ATOM     11   O  A00 X   1      64.870  21.671  72.3460  0.00  0.00     0.000 O
ATOM     12   O  A00 X   1      62.484  21.406  72.3860  0.00  0.00     0.000 OA
ATOM     13   O  A00 X   1      63.441  23.619  72.7060  0.00  0.00     0.000 OA
ATOM     14   O  A00 X   1      63.721  21.934  74.3620  0.00  0.00     0.000 OA
ATOM     15   S  A00 X   1      63.533  22.208  72.9630  0.00  0.00     0.000 S
ENDBRANCH 2 11
BRANCH 5 16
ATOM     16   C  A00 X   1      67.147  24.200  69.2220  0.00  0.00     0.000 C
ATOM     17   O  A00 X   1      66.144  24.526  68.6210  0.00  0.00     0.000 OA
ATOM     18   O  A00 X   1      67.821  25.060  69.7520  0.00  0.00     0.000 OA
ENDBRANCH 5 16
BRANCH 1 19
ATOM     19  O4  A00 X   2      67.394  23.700  72.4410  0.00  0.00     0.000 O
BRANCH 19 23
ATOM     20  C1  A00 X   2      70.251  21.673  74.9100  0.00  0.00     0.000 C
ATOM     21  C2  A00 X   2      68.839  21.910  75.4980  0.00  0.00     0.000 C
ATOM     22  C3  A00 X   2      67.827  22.239  74.3810  0.00  0.00     0.000 C
ATOM     23  C4  A00 X   2      68.327  23.424  73.5250  0.00  0.00     0.000 C
ATOM     24  C5  A00 X   2      69.750  23.073  73.0130  0.00  0.00     0.000 C
ATOM     25  O5  A00 X   2      70.619  22.859  74.1560  0.00  0.00     0.000 O
ATOM     26   O  A00 X   2      66.522  22.382  74.9680  0.00  0.00     0.000 O
ATOM     28  HD  A00 X   2      66.801  22.930  75.5770  0.00  0.00     0.000 HD
BRANCH 21 30
ATOM     28   N  A00 X   2      69.459  22.082  76.8150  0.00  0.00     0.000 N
ATOM     30  HD  A00 X   2      68.613  21.959  76.9510  0.00  0.00     0.000 HD
ATOM     30   O  A00 X   2      67.954  21.323  78.4330  0.00  0.00     0.000 OA
ATOM     31   S  A00 X   2      68.554  22.544  78.0260  0.00  0.00     0.000 S
ATOM     32   O  A00 X   2      69.489  23.097  78.9560  0.00  0.00     0.000 OA
ATOM     33   O  A00 X   2      67.679  23.566  77.5330  0.00  0.00     0.000 OA
ENDBRANCH 21 30
BRANCH 24 34
ATOM     34   C  A00 X   2      70.385  23.994  71.9450  0.00  0.00     0.000 C
ATOM     35   O  A00 X   2      70.894  27.573  72.3780  0.00  0.00     0.000 OA
ATOM     36   O  A00 X   2      70.137  25.383  72.2380  0.00  0.00     0.000 O
ATOM     37   O  A00 X   2      71.734  25.930  73.8580  0.00  0.00     0.000 OA
ATOM     38   S  A00 X   2      71.421  26.253  72.4990  0.00  0.00     0.000 S
ATOM     39   O  A00 X   2      72.371  25.884  71.4940  0.00  0.00     0.000 OA
ENDBRANCH 24 34
BRANCH 20 40
ATOM     40  O4  A00 X   3      70.117  20.559  74.0160  0.00  0.00     0.000 O
BRANCH 40 44
ATOM     41  C1  A00 X   3      70.914  19.112  70.7910  0.00  0.00     0.000 C
ATOM     42  C2  A00 X   3      70.023  18.443  71.8600  0.00  0.00     0.000 C
ATOM     43  C3  A00 X   3      70.729  18.427  73.2400  0.00  0.00     0.000 C
ATOM     44  C4  A00 X   3      71.283  19.775  73.6840  0.00  0.00     0.000 C
ATOM     45  C5  A00 X   3      72.171  20.381  72.5600  0.00  0.00     0.000 C
ATOM     46  O5  A00 X   3      71.469  20.366  71.2750  0.00  0.00     0.000 O
ATOM     47   O  A00 X   3      70.033  17.754  74.2880  0.00  0.00     0.000 O
ATOM     49  HD  A00 X   3      70.336  18.414  74.7600  0.00  0.00     0.000 HD
BRANCH 42 49
ATOM     49   O  A00 X   3      68.787  19.189  71.9080  0.00  0.00     0.000 O
ATOM     50   O  A00 X   3      66.761  19.105  73.1800  0.00  0.00     0.000 OA
ATOM     51   O  A00 X   3      67.724  17.079  72.4340  0.00  0.00     0.000 OA
ATOM     52   O  A00 X   3      66.803  18.548  70.8280  0.00  0.00     0.000 OA
ATOM     53   S  A00 X   3      67.430  18.450  72.1000  0.00  0.00     0.000 S
ENDBRANCH 42 49
BRANCH 45 54
ATOM     54   C  A00 X   3      73.549  19.712  72.5030  0.00  0.00     0.000 C
ATOM     55   O  A00 X   3      73.786  18.725  73.1700  0.00  0.00     0.000 OA
ATOM     56   O  A00 X   3      74.432  20.159  71.7880  0.00  0.00     0.000 OA
ENDBRANCH 45 54
BRANCH 41 57
ATOM     57  O4  A00 X   4      71.901  18.195  70.2690  0.00  0.00     0.000 O
BRANCH 57 61
ATOM     58  C1  A00 X   4      73.756  17.769  66.3940  0.00  0.00     0.000 C
ATOM     59  C2  A00 X   4      73.960  19.093  67.1720  0.00  0.00     0.000 C
ATOM     60  C3  A00 X   4      73.569  18.998  68.6610  0.00  0.00     0.000 C
ATOM     61  C4  A00 X   4      72.186  18.337  68.8480  0.00  0.00     0.000 C
ATOM     62  C5  A00 X   4      72.274  16.943  68.1780  0.00  0.00     0.000 C
ATOM     63  O5  A00 X   4      72.520  17.112  66.7580  0.00  0.00     0.000 O
BRANCH 59 66
ATOM     64   N  A00 X   4      74.568  20.428  67.3150  0.00  0.00     0.000 N
ATOM     66  HD  A00 X   4      74.051  21.079  67.5570  0.00  0.00     0.000 HD
ATOM     66   O  A00 X   4      74.791  20.474  64.9180  0.00  0.00     0.000 OA
ATOM     67   S  A00 X   4      75.411  21.012  66.0880  0.00  0.00     0.000 S
ATOM     68   O  A00 X   4      75.226  22.419  66.2930  0.00  0.00     0.000 OA
ATOM     69   O  A00 X   4      76.721  20.535  66.4300  0.00  0.00     0.000 OA
ENDBRANCH 59 66
BRANCH 62 70
ATOM     70   C  A00 X   4      71.007  16.074  68.3570  0.00  0.00     0.000 C
ATOM     71   O  A00 X   4      67.720  16.543  66.9120  0.00  0.00     0.000 OA
ATOM     72   O  A00 X   4      68.373  16.126  69.1360  0.00  0.00     0.000 OA
ATOM     73   O  A00 X   4      70.009  16.488  67.4100  0.00  0.00     0.000 O
ATOM     74   O  A00 X   4      68.687  18.348  68.1850  0.00  0.00     0.000 OA
ATOM     75   S  A00 X   4      68.613  16.939  67.9640  0.00  0.00     0.000 S
ENDBRANCH 62 70
ENDBRANCH 57 61
ENDBRANCH 41 57
ENDBRANCH 40 44
ENDBRANCH 20 40
ENDBRANCH 19 23
ENDBRANCH 1 19
TORSDOF 14
ENDMDL
MODEL 93
REMARK VINA RESULT:      -0.3    179.381    185.159
ROOT
ATOM      1  C1  A00 X   1      29.197 149.847 139.9550  0.00  0.00     0.000 C
ATOM      2  C2  A00 X   1      27.976 149.775 139.0000  0.00  0.00     0.000 C
ATOM      3  C3  A00 X   1      26.719 150.603 139.4280  0.00  0.00     0.000 C
ATOM      4  C4  A00 X   1      26.707 151.087 140.9010  0.00  0.00     0.000 C
ATOM      5  C5  A00 X   1      27.612 150.239 141.7940  0.00  0.00     0.000 C
ATOM      6  O5  A00 X   1      28.941 150.430 141.2570  0.00  0.00     0.000 O
ATOM      7   O  A00 X   1      25.558 149.793 139.2570  0.00  0.00     0.000 O
ATOM      9  HD  A00 X   1      25.464 150.221 140.0050  0.00  0.00     0.000 HD
ATOM      9   O  A00 X   1      27.079 152.461 141.0020  0.00  0.00     0.000 O
ATOM     11  HD  A00 X   1      26.985 152.889 141.7490  0.00  0.00     0.000 HD
ENDROOT
BRANCH 2 11
ATOM     11   O  A00 X   1      28.409 150.217 137.6990  0.00  0.00     0.000 O
ATOM     12   O  A00 X   1      26.863 150.563 135.8950  0.00  0.00     0.000 OA
ATOM     13   O  A00 X   1      27.157 148.324 136.7980  0.00  0.00     0.000 OA
ATOM     14   O  A00 X   1      28.911 149.372 135.5810  0.00  0.00     0.000 OA
ATOM     15   S  A00 X   1      27.764 149.572 136.4250  0.00  0.00     0.000 S
ENDBRANCH 2 11
BRANCH 5 16
ATOM     16   C  A00 X   1      27.207 148.767 141.9170  0.00  0.00     0.000 C
ATOM     17   O  A00 X   1      26.079 148.447 141.6020  0.00  0.00     0.000 OA
ATOM     18   O  A00 X   1      27.973 147.910 142.3110  0.00  0.00     0.000 OA
ENDBRANCH 5 16
BRANCH 1 19
ATOM     19  O4  A00 X   2      29.895 148.583 140.0700  0.00  0.00     0.000 O
BRANCH 19 23
ATOM     20  C1  A00 X   2      33.782 150.388 140.0760  0.00  0.00     0.000 C
ATOM     21  C2  A00 X   2      33.273 149.792 138.7410  0.00  0.00     0.000 C
ATOM     22  C3  A00 X   2      31.745 149.584 138.7800  0.00  0.00     0.000 C
ATOM     23  C4  A00 X   2      31.342 148.736 140.0080  0.00  0.00     0.000 C
ATOM     24  C5  A00 X   2      31.925 149.426 141.2720  0.00  0.00     0.000 C
ATOM     25  O5  A00 X   2      33.369 149.495 141.1430  0.00  0.00     0.000 O
ATOM     26   O  A00 X   2      31.313 149.094 137.4980  0.00  0.00     0.000 O
ATOM     28  HD  A00 X   2      31.911 148.468 137.4800  0.00  0.00     0.000 HD
BRANCH 21 30
ATOM     28   N  A00 X   2      34.654 149.407 138.4310  0.00  0.00     0.000 N
ATOM     30  HD  A00 X   2      34.207 149.357 137.6900  0.00  0.00     0.000 HD
ATOM     30   O  A00 X   2      34.931 149.502 136.1130  0.00  0.00     0.000 OA
ATOM     31   S  A00 X   2      34.925 148.528 137.1460  0.00  0.00     0.000 S
ATOM     32   O  A00 X   2      36.193 147.921 137.4120  0.00  0.00     0.000 OA
ATOM     33   O  A00 X   2      33.899 147.530 137.0910  0.00  0.00     0.000 OA
ENDBRANCH 21 30
BRANCH 24 34
ATOM     34   C  A00 X   2      31.472 148.905 142.6560  0.00  0.00     0.000 C
ATOM     35   O  A00 X   2      31.849 145.457 143.7620  0.00  0.00     0.000 OA
ATOM     36   O  A00 X   2      31.418 147.465 142.6810  0.00  0.00     0.000 O
ATOM     37   O  A00 X   2      33.639 146.805 143.0040  0.00  0.00     0.000 OA
ATOM     38   S  A00 X   2      32.391 146.774 143.7050  0.00  0.00     0.000 S
ATOM     39   O  A00 X   2      32.296 147.523 144.9220  0.00  0.00     0.000 OA
ENDBRANCH 24 34
BRANCH 20 40
ATOM     40  O4  A00 X   3      33.111 151.649 140.2180  0.00  0.00     0.000 O
BRANCH 40 44
ATOM     41  C1  A00 X   3      31.329 153.938 142.3880  0.00  0.00     0.000 C
ATOM     42  C2  A00 X   3      31.599 154.178 140.8870  0.00  0.00     0.000 C
ATOM     43  C3  A00 X   3      33.100 153.974 140.5540  0.00  0.00     0.000 C
ATOM     44  C4  A00 X   3      33.689 152.665 141.0640  0.00  0.00     0.000 C
ATOM     45  C5  A00 X   3      33.381 152.498 142.5790  0.00  0.00     0.000 C
ATOM     46  O5  A00 X   3      31.957 152.709 142.8490  0.00  0.00     0.000 O
ATOM     47   O  A00 X   3      33.483 154.255 139.2090  0.00  0.00     0.000 O
ATOM     49  HD  A00 X   3      33.984 153.558 139.3250  0.00  0.00     0.000 HD
BRANCH 42 49
ATOM     49   O  A00 X   3      30.765 153.255 140.1540  0.00  0.00     0.000 O
ATOM     50   O  A00 X   3      30.399 152.704 137.8530  0.00  0.00     0.000 OA
ATOM     51   O  A00 X   3      30.632 154.977 138.4580  0.00  0.00     0.000 OA
ATOM     52   O  A00 X   3      28.705 153.813 139.1750  0.00  0.00     0.000 OA
ATOM     53   S  A00 X   3      30.079 153.698 138.8280  0.00  0.00     0.000 S
ENDBRANCH 42 49
BRANCH 45 54
ATOM     54   C  A00 X   3      34.295 153.373 143.4440  0.00  0.00     0.000 C
ATOM     55   O  A00 X   3      34.223 153.335 144.6560  0.00  0.00     0.000 OA
ATOM     56   O  A00 X   3      35.111 154.123 142.9320  0.00  0.00     0.000 OA
ENDBRANCH 45 54
BRANCH 41 57
ATOM     57  O4  A00 X   4      31.658 155.099 143.1830  0.00  0.00     0.000 O
BRANCH 57 61
ATOM     58  C1  A00 X   4      29.946 156.791 146.7670  0.00  0.00     0.000 C
ATOM     59  C2  A00 X   4      30.559 155.370 146.8380  0.00  0.00     0.000 C
ATOM     60  C3  A00 X   4      31.445 155.022 145.6240  0.00  0.00     0.000 C
ATOM     61  C4  A00 X   4      30.751 155.368 144.2890  0.00  0.00     0.000 C
ATOM     62  C5  A00 X   4      30.414 156.879 144.3520  0.00  0.00     0.000 C
ATOM     63  O5  A00 X   4      29.481 157.115 145.4370  0.00  0.00     0.000 O
BRANCH 59 66
ATOM     64   N  A00 X   4      31.234 154.527 147.8410  0.00  0.00     0.000 N
ATOM     66  HD  A00 X   4      31.342 153.689 147.6520  0.00  0.00     0.000 HD
ATOM     66   O  A00 X   4      29.268 154.759 149.2120  0.00  0.00     0.000 OA
ATOM     67   S  A00 X   4      30.675 154.538 149.3390  0.00  0.00     0.000 S
ATOM     68   O  A00 X   4      31.056 153.224 149.7670  0.00  0.00     0.000 OA
ATOM     69   O  A00 X   4      31.471 155.594 149.8990  0.00  0.00     0.000 OA
ENDBRANCH 59 66
BRANCH 62 70
ATOM     70   C  A00 X   4      29.805 157.445 143.0470  0.00  0.00     0.000 C
ATOM     71   O  A00 X   4      26.530 156.835 141.6300  0.00  0.00     0.000 OA
ATOM     72   O  A00 X   4      28.668 156.750 140.6460  0.00  0.00     0.000 OA
ATOM     73   O  A00 X   4      28.402 157.136 143.0050  0.00  0.00     0.000 O
ATOM     74   O  A00 X   4      27.946 154.944 142.1150  0.00  0.00     0.000 OA
ATOM     75   S  A00 X   4      27.866 156.328 141.7730  0.00  0.00     0.000 S
ENDBRANCH 62 70
ENDBRANCH 57 61
ENDBRANCH 41 57
ENDBRANCH 40 44
ENDBRANCH 20 40
ENDBRANCH 19 23
ENDBRANCH 1 19
TORSDOF 14
ENDMDL
MODEL 94
REMARK VINA RESULT:      -0.2    156.500    160.819
ROOT
ATOM      1  C1  A00 X   1     152.547 166.117 168.6280  0.00  0.00     0.000 C
ATOM      2  C2  A00 X   1     151.752 165.936 169.9480  0.00  0.00     0.000 C
ATOM      3  C3  A00 X   1     150.646 167.004 170.2360  0.00  0.00     0.000 C
ATOM      4  C4  A00 X   1     150.723 168.294 169.3790  0.00  0.00     0.000 C
ATOM      5  C5  A00 X   1     152.125 168.532 168.8190  0.00  0.00     0.000 C
ATOM      6  O5  A00 X   1     152.377 167.394 167.9640  0.00  0.00     0.000 O
ATOM      7   O  A00 X   1     150.751 167.415 171.5970  0.00  0.00     0.000 O
ATOM      9  HD  A00 X   1     150.599 168.126 171.1270  0.00  0.00     0.000 HD
ATOM      9   O  A00 X   1     149.775 168.268 168.3120  0.00  0.00     0.000 O
ATOM     11  HD  A00 X   1     149.623 168.979 167.8420  0.00  0.00     0.000 HD
ENDROOT
BRANCH 2 11
ATOM     11   O  A00 X   1     151.147 164.629 169.9200  0.00  0.00     0.000 O
ATOM     12   O  A00 X   1     149.572 163.922 171.5900  0.00  0.00     0.000 OA
ATOM     13   O  A00 X   1     151.865 164.405 172.2440  0.00  0.00     0.000 OA
ATOM     14   O  A00 X   1     151.371 162.515 170.8860  0.00  0.00     0.000 OA
ATOM     15   S  A00 X   1     150.974 163.844 171.2660  0.00  0.00     0.000 S
ENDBRANCH 2 11
BRANCH 5 16
ATOM     16   C  A00 X   1     153.213 168.760 169.8730  0.00  0.00     0.000 C
ATOM     17   O  A00 X   1     152.877 169.057 171.0010  0.00  0.00     0.000 OA
ATOM     18   O  A00 X   1     154.397 168.649 169.6220  0.00  0.00     0.000 OA
ENDBRANCH 5 16
BRANCH 1 19
ATOM     19  O4  A00 X   2     153.949 165.776 168.7650  0.00  0.00     0.000 O
BRANCH 19 23
ATOM     20  C1  A00 X   2     154.249 163.980 164.8860  0.00  0.00     0.000 C
ATOM     21  C2  A00 X   2     153.909 163.053 166.0780  0.00  0.00     0.000 C
ATOM     22  C3  A00 X   2     153.416 163.873 167.2880  0.00  0.00     0.000 C
ATOM     23  C4  A00 X   2     154.439 164.971 167.6550  0.00  0.00     0.000 C
ATOM     24  C5  A00 X   2     154.707 165.815 166.3790  0.00  0.00     0.000 C
ATOM     25  O5  A00 X   2     155.234 164.944 165.3450  0.00  0.00     0.000 O
ATOM     26   O  A00 X   2     153.049 162.965 168.3410  0.00  0.00     0.000 O
ATOM     28  HD  A00 X   2     153.795 162.529 168.2940  0.00  0.00     0.000 HD
BRANCH 21 30
ATOM     28   N  A00 X   2     154.683 161.993 165.4240  0.00  0.00     0.000 N
ATOM     30  HD  A00 X   2     154.202 161.612 166.0360  0.00  0.00     0.000 HD
ATOM     30   O  A00 X   2     153.718 159.939 165.9820  0.00  0.00     0.000 OA
ATOM     31   S  A00 X   2     154.931 160.642 166.2080  0.00  0.00     0.000 S
ATOM     32   O  A00 X   2     156.081 160.085 165.5650  0.00  0.00     0.000 OA
ATOM     33   O  A00 X   2     155.238 160.989 167.5630  0.00  0.00     0.000 OA
ENDBRANCH 21 30
BRANCH 24 34
ATOM     34   C  A00 X   2     155.522 167.121 166.5310  0.00  0.00     0.000 C
ATOM     35   O  A00 X   2     158.561 167.860 164.6670  0.00  0.00     0.000 OA
ATOM     36   O  A00 X   2     156.835 166.989 165.9510  0.00  0.00     0.000 O
ATOM     37   O  A00 X   2     156.494 167.306 163.6590  0.00  0.00     0.000 OA
ATOM     38   S  A00 X   2     157.141 167.962 164.7540  0.00  0.00     0.000 S
ATOM     39   O  A00 X   2     156.647 169.249 165.1420  0.00  0.00     0.000 OA
ENDBRANCH 24 34
BRANCH 20 40
ATOM     40  O4  A00 X   3     153.027 164.660 164.5620  0.00  0.00     0.000 O
BRANCH 40 44
ATOM     41  C1  A00 X   3     151.065 167.494 163.4490  0.00  0.00     0.000 C
ATOM     42  C2  A00 X   3     150.488 166.101 163.7830  0.00  0.00     0.000 C
ATOM     43  C3  A00 X   3     151.267 164.985 163.0410  0.00  0.00     0.000 C
ATOM     44  C4  A00 X   3     152.781 165.058 163.1970  0.00  0.00     0.000 C
ATOM     45  C5  A00 X   3     153.285 166.485 162.8390  0.00  0.00     0.000 C
ATOM     46  O5  A00 X   3     152.516 167.505 163.5530  0.00  0.00     0.000 O
ATOM     47   O  A00 X   3     150.767 163.660 163.2070  0.00  0.00     0.000 O
ATOM     49  HD  A00 X   3     151.610 163.465 163.2320  0.00  0.00     0.000 HD
BRANCH 42 49
ATOM     49   O  A00 X   3     150.574 165.941 165.2160  0.00  0.00     0.000 O
ATOM     50   O  A00 X   3     150.020 164.238 166.8050  0.00  0.00     0.000 OA
ATOM     51   O  A00 X   3     148.517 164.678 165.0330  0.00  0.00     0.000 OA
ATOM     52   O  A00 X   3     148.800 166.323 166.7060  0.00  0.00     0.000 OA
ATOM     53   S  A00 X   3     149.418 165.254 166.0000  0.00  0.00     0.000 S
ENDBRANCH 42 49
BRANCH 45 54
ATOM     54   C  A00 X   3     153.323 166.709 161.3220  0.00  0.00     0.000 C
ATOM     55   O  A00 X   3     153.993 167.602 160.8450  0.00  0.00     0.000 OA
ATOM     56   O  A00 X   3     152.679 165.996 160.5680  0.00  0.00     0.000 OA
ENDBRANCH 45 54
BRANCH 41 57
ATOM     57  O4  A00 X   4     150.563 167.991 162.1880  0.00  0.00     0.000 O
BRANCH 57 61
ATOM     58  C1  A00 X   4     150.642 171.909 160.3750  0.00  0.00     0.000 C
ATOM     59  C2  A00 X   4     151.741 170.889 159.9850  0.00  0.00     0.000 C
ATOM     60  C3  A00 X   4     151.413 169.441 160.4030  0.00  0.00     0.000 C
ATOM     61  C4  A00 X   4     150.939 169.361 161.8700  0.00  0.00     0.000 C
ATOM     62  C5  A00 X   4     149.708 170.294 161.9820  0.00  0.00     0.000 C
ATOM     63  O5  A00 X   4     150.114 171.657 161.6980  0.00  0.00     0.000 O
BRANCH 59 66
ATOM     64   N  A00 X   4     153.197 170.663 159.9390  0.00  0.00     0.000 N
ATOM     66  HD  A00 X   4     153.626 170.664 160.6910  0.00  0.00     0.000 HD
ATOM     66   O  A00 X   4     153.402 172.843 158.9350  0.00  0.00     0.000 OA
ATOM     67   S  A00 X   4     154.075 171.582 158.9680  0.00  0.00     0.000 S
ATOM     68   O  A00 X   4     155.329 171.569 159.6640  0.00  0.00     0.000 OA
ATOM     69   O  A00 X   4     154.056 170.782 157.7760  0.00  0.00     0.000 OA
ENDBRANCH 59 66
BRANCH 62 70
ATOM     70   C  A00 X   4     149.016 170.266 163.3660  0.00  0.00     0.000 C
ATOM     71   O  A00 X   4     150.064 171.847 166.4500  0.00  0.00     0.000 OA
ATOM     72   O  A00 X   4     149.380 169.636 166.0140  0.00  0.00     0.000 OA
ATOM     73   O  A00 X   4     149.644 171.227 164.2300  0.00  0.00     0.000 O
ATOM     74   O  A00 X   4     151.603 170.364 165.3340  0.00  0.00     0.000 OA
ATOM     75   S  A00 X   4     150.243 170.714 165.5850  0.00  0.00     0.000 S
ENDBRANCH 62 70
ENDBRANCH 57 61
ENDBRANCH 41 57
ENDBRANCH 40 44
ENDBRANCH 20 40
ENDBRANCH 19 23
ENDBRANCH 1 19
TORSDOF 14
ENDMDL
MODEL 95
REMARK VINA RESULT:      -0.2    211.775    217.558
ROOT
ATOM      1  C1  A00 X   1      14.480 199.193 119.4320  0.00  0.00     0.000 C
ATOM      2  C2  A00 X   1      15.683 200.023 118.9080  0.00  0.00     0.000 C
ATOM      3  C3  A00 X   1      17.066 199.293 118.8920  0.00  0.00     0.000 C
ATOM      4  C4  A00 X   1      17.144 197.989 119.7280  0.00  0.00     0.000 C
ATOM      5  C5  A00 X   1      16.077 197.940 120.8210  0.00  0.00     0.000 C
ATOM      6  O5  A00 X   1      14.820 197.956 120.1070  0.00  0.00     0.000 O
ATOM      7   O  A00 X   1      18.054 200.174 119.4230  0.00  0.00     0.000 O
ATOM      9  HD  A00 X   1      18.214 199.386 119.7450  0.00  0.00     0.000 HD
ATOM      9   O  A00 X   1      17.040 196.832 118.8990  0.00  0.00     0.000 O
ATOM     11  HD  A00 X   1      17.201 196.044 119.2210  0.00  0.00     0.000 HD
ENDROOT
BRANCH 2 11
ATOM     11   O  A00 X   1      15.366 200.457 117.5710  0.00  0.00     0.000 O
ATOM     12   O  A00 X   1      16.789 201.960 116.3530  0.00  0.00     0.000 OA
ATOM     13   O  A00 X   1      15.701 202.735 118.3870  0.00  0.00     0.000 OA
ATOM     14   O  A00 X   1      14.420 202.266 116.4380  0.00  0.00     0.000 OA
ATOM     15   S  A00 X   1      15.610 201.956 117.1830  0.00  0.00     0.000 S
ENDBRANCH 2 11
BRANCH 5 16
ATOM     16   C  A00 X   1      16.190 199.033 121.8880  0.00  0.00     0.000 C
ATOM     17   O  A00 X   1      15.276 199.176 122.6740  0.00  0.00     0.000 OA
ATOM     18   O  A00 X   1      17.163 199.756 121.9790  0.00  0.00     0.000 OA
ENDBRANCH 5 16
BRANCH 1 19
ATOM     19  O4  A00 X   2      13.551 199.983 120.2130  0.00  0.00     0.000 O
BRANCH 19 23
ATOM     20  C1  A00 X   2      10.095 197.857 118.8350  0.00  0.00     0.000 C
ATOM     21  C2  A00 X   2      10.452 199.181 118.1170  0.00  0.00     0.000 C
ATOM     22  C3  A00 X   2      11.911 199.590 118.4130  0.00  0.00     0.000 C
ATOM     23  C4  A00 X   2      12.161 199.647 119.9360  0.00  0.00     0.000 C
ATOM     24  C5  A00 X   2      11.749 198.275 120.5370  0.00  0.00     0.000 C
ATOM     25  O5  A00 X   2      10.344 198.044 120.2530  0.00  0.00     0.000 O
ATOM     26   O  A00 X   2      12.214 200.783 117.6710  0.00  0.00     0.000 O
ATOM     28  HD  A00 X   2      11.505 201.196 117.9480  0.00  0.00     0.000 HD
BRANCH 21 30
ATOM     28   N  A00 X   2      10.739 199.838 116.8380  0.00  0.00     0.000 N
ATOM     30  HD  A00 X   2       9.886 199.690 116.8580  0.00  0.00     0.000 HD
ATOM     30   O  A00 X   2       8.722 200.617 115.9530  0.00  0.00     0.000 OA
ATOM     31   S  A00 X   2       9.719 199.654 115.6450  0.00  0.00     0.000 S
ATOM     32   O  A00 X   2      10.501 199.944 114.4830  0.00  0.00     0.000 OA
ATOM     33   O  A00 X   2       9.315 198.279 115.6420  0.00  0.00     0.000 OA
ENDBRANCH 21 30
BRANCH 24 34
ATOM     34   C  A00 X   2      12.115 197.989 122.0120  0.00  0.00     0.000 C
ATOM     35   O  A00 X   2       9.692 197.100 124.5810  0.00  0.00     0.000 OA
ATOM     36   O  A00 X   2      10.946 198.016 122.8560  0.00  0.00     0.000 O
ATOM     37   O  A00 X   2       9.959 195.918 122.5500  0.00  0.00     0.000 OA
ATOM     38   S  A00 X   2      10.612 196.663 123.5830  0.00  0.00     0.000 S
ATOM     39   O  A00 X   2      11.854 196.154 124.0830  0.00  0.00     0.000 OA
ENDBRANCH 24 34
BRANCH 20 40
ATOM     40  O4  A00 X   3      11.003 196.875 118.3140  0.00  0.00     0.000 O
BRANCH 40 44
ATOM     41  C1  A00 X   3      13.128 193.956 118.6010  0.00  0.00     0.000 C
ATOM     42  C2  A00 X   3      12.865 194.727 117.2900  0.00  0.00     0.000 C
ATOM     43  C3  A00 X   3      11.344 194.921 117.0560  0.00  0.00     0.000 C
ATOM     44  C4  A00 X   3      10.588 195.494 118.2480  0.00  0.00     0.000 C
ATOM     45  C5  A00 X   3      10.900 194.664 119.5250  0.00  0.00     0.000 C
ATOM     46  O5  A00 X   3      12.344 194.497 119.7000  0.00  0.00     0.000 O
ATOM     47   O  A00 X   3      10.978 195.546 115.8270  0.00  0.00     0.000 O
ATOM     49  HD  A00 X   3      10.387 195.931 116.3300  0.00  0.00     0.000 HD
BRANCH 42 49
ATOM     49   O  A00 X   3      13.548 195.995 117.3990  0.00  0.00     0.000 O
ATOM     50   O  A00 X   3      13.800 197.950 116.0420  0.00  0.00     0.000 OA
ATOM     51   O  A00 X   3      13.903 195.825 115.0120  0.00  0.00     0.000 OA
ATOM     52   O  A00 X   3      15.654 196.457 116.4690  0.00  0.00     0.000 OA
ATOM     53   S  A00 X   3      14.272 196.607 116.1650  0.00  0.00     0.000 S
ENDBRANCH 42 49
BRANCH 45 54
ATOM     54   C  A00 X   3      10.133 193.336 119.5400  0.00  0.00     0.000 C
ATOM     55   O  A00 X   3      10.129 192.635 120.5310  0.00  0.00     0.000 OA
ATOM     56   O  A00 X   3       9.515 192.960 118.5560  0.00  0.00     0.000 OA
ENDBRANCH 45 54
BRANCH 41 57
ATOM     57  O4  A00 X   4      12.980 192.530 118.4210  0.00  0.00     0.000 O
BRANCH 57 61
ATOM     58  C1  A00 X   4      14.911 189.116 120.2260  0.00  0.00     0.000 C
ATOM     59  C2  A00 X   4      14.054 190.043 121.1230  0.00  0.00     0.000 C
ATOM     60  C3  A00 X   4      13.139 190.995 120.3270  0.00  0.00     0.000 C
ATOM     61  C4  A00 X   4      13.904 191.710 119.1920  0.00  0.00     0.000 C
ATOM     62  C5  A00 X   4      14.503 190.594 118.3000  0.00  0.00     0.000 C
ATOM     63  O5  A00 X   4      15.447 189.816 119.0790  0.00  0.00     0.000 O
BRANCH 59 66
ATOM     64   N  A00 X   4      14.920 190.920 121.9320  0.00  0.00     0.000 N
ATOM     66  HD  A00 X   4      15.698 191.123 121.6090  0.00  0.00     0.000 HD
ATOM     66   O  A00 X   4      15.181 189.081 123.4650  0.00  0.00     0.000 OA
ATOM     67   S  A00 X   4      15.205 190.510 123.4520  0.00  0.00     0.000 S
ATOM     68   O  A00 X   4      16.494 191.108 123.6440  0.00  0.00     0.000 OA
ATOM     69   O  A00 X   4      14.132 191.204 124.1060  0.00  0.00     0.000 OA
ENDBRANCH 59 66
BRANCH 62 70
ATOM     70   C  A00 X   4      15.222 191.115 117.0330  0.00  0.00     0.000 C
ATOM     71   O  A00 X   4      18.330 192.957 116.7940  0.00  0.00     0.000 OA
ATOM     72   O  A00 X   4      16.225 193.365 115.8190  0.00  0.00     0.000 OA
ATOM     73   O  A00 X   4      16.539 191.569 117.3880  0.00  0.00     0.000 O
ATOM     74   O  A00 X   4      16.569 193.842 118.1840  0.00  0.00     0.000 OA
ATOM     75   S  A00 X   4      16.919 193.052 117.0480  0.00  0.00     0.000 S
ENDBRANCH 62 70
ENDBRANCH 57 61
ENDBRANCH 41 57
ENDBRANCH 40 44
ENDBRANCH 20 40
ENDBRANCH 19 23
ENDBRANCH 1 19
TORSDOF 14
ENDMDL
MODEL 96
REMARK VINA RESULT:      -0.2    105.702    110.329
ROOT
ATOM      1  C1  A00 X   1     193.043 144.906 100.9460  0.00  0.00     0.000 C
ATOM      2  C2  A00 X   1     192.815 145.856 102.1520  0.00  0.00     0.000 C
ATOM      3  C3  A00 X   1     191.349 146.361 102.3610  0.00  0.00     0.000 C
ATOM      4  C4  A00 X   1     190.394 146.160 101.1560  0.00  0.00     0.000 C
ATOM      5  C5  A00 X   1     191.152 146.019  99.8360  0.00  0.00     0.000 C
ATOM      6  O5  A00 X   1     191.951 144.826  99.9970  0.00  0.00     0.000 O
ATOM      7   O  A00 X   1     191.381 147.763 102.6220  0.00  0.00     0.000 O
ATOM      9  HD  A00 X   1     190.714 147.618 102.0880  0.00  0.00     0.000 HD
ATOM      9   O  A00 X   1     189.544 145.029 101.3470  0.00  0.00     0.000 O
ATOM     11  HD  A00 X   1     188.878 144.884 100.8140  0.00  0.00     0.000 HD
ENDROOT
BRANCH 2 11
ATOM     11   O  A00 X   1     193.248 145.168 103.3410  0.00  0.00     0.000 O
ATOM     12   O  A00 X   1     193.754 146.341 105.3740  0.00  0.00     0.000 OA
ATOM     13   O  A00 X   1     195.114 146.744 103.3980  0.00  0.00     0.000 OA
ATOM     14   O  A00 X   1     195.199 144.644 104.5120  0.00  0.00     0.000 OA
ATOM     15   S  A00 X   1     194.395 145.796 104.2050  0.00  0.00     0.000 S
ENDBRANCH 2 11
BRANCH 5 16
ATOM     16   C  A00 X   1     191.965 147.250  99.4220  0.00  0.00     0.000 C
ATOM     17   O  A00 X   1     191.733 148.310  99.9660  0.00  0.00     0.000 OA
ATOM     18   O  A00 X   1     192.835 147.201  98.5750  0.00  0.00     0.000 OA
ENDBRANCH 5 16
BRANCH 1 19
ATOM     19  O4  A00 X   2     194.307 145.139 100.2790  0.00  0.00     0.000 O
BRANCH 19 23
ATOM     20  C1  A00 X   2     194.779 141.163  98.7530  0.00  0.00     0.000 C
ATOM     21  C2  A00 X   2     195.176 141.414 100.2280  0.00  0.00     0.000 C
ATOM     22  C3  A00 X   2     194.559 142.730 100.7460  0.00  0.00     0.000 C
ATOM     23  C4  A00 X   2     194.931 143.907  99.8160  0.00  0.00     0.000 C
ATOM     24  C5  A00 X   2     194.501 143.526  98.3730  0.00  0.00     0.000 C
ATOM     25  O5  A00 X   2     195.203 142.317  97.9810  0.00  0.00     0.000 O
ATOM     26   O  A00 X   2     194.898 142.883 102.1350  0.00  0.00     0.000 O
ATOM     28  HD  A00 X   2     195.741 142.737 101.9980  0.00  0.00     0.000 HD
BRANCH 21 30
ATOM     28   N  A00 X   2     194.902 140.902 101.5750  0.00  0.00     0.000 N
ATOM     30  HD  A00 X   2     195.474 140.361 101.2120  0.00  0.00     0.000 HD
ATOM     30   O  A00 X   2     196.577 139.368 102.1240  0.00  0.00     0.000 OA
ATOM     31   S  A00 X   2     195.179 139.375 101.8760  0.00  0.00     0.000 S
ATOM     32   O  A00 X   2     194.362 139.101 103.0180  0.00  0.00     0.000 OA
ATOM     33   O  A00 X   2     194.717 138.629 100.7440  0.00  0.00     0.000 OA
ENDBRANCH 21 30
BRANCH 24 34
ATOM     34   C  A00 X   2     194.552 144.625  97.2860  0.00  0.00     0.000 C
ATOM     35   O  A00 X   2     196.188 144.229  94.0580  0.00  0.00     0.000 OA
ATOM     36   O  A00 X   2     195.546 144.326  96.2860  0.00  0.00     0.000 O
ATOM     37   O  A00 X   2     194.503 142.783  94.8720  0.00  0.00     0.000 OA
ATOM     38   S  A00 X   2     194.992 144.127  94.8280  0.00  0.00     0.000 S
ATOM     39   O  A00 X   2     194.039 145.173  94.6110  0.00  0.00     0.000 OA
ENDBRANCH 24 34
BRANCH 20 40
ATOM     40  O4  A00 X   3     193.347 141.079  98.7450  0.00  0.00     0.000 O
BRANCH 40 44
ATOM     41  C1  A00 X   3     189.893 141.280  97.6720  0.00  0.00     0.000 C
ATOM     42  C2  A00 X   3     190.386 140.498  98.9090  0.00  0.00     0.000 C
ATOM     43  C3  A00 X   3     191.565 139.562  98.5400  0.00  0.00     0.000 C
ATOM     44  C4  A00 X   3     192.694 140.237  97.7710  0.00  0.00     0.000 C
ATOM     45  C5  A00 X   3     192.120 140.997  96.5420  0.00  0.00     0.000 C
ATOM     46  O5  A00 X   3     191.004 141.860  96.9340  0.00  0.00     0.000 O
ATOM     47   O  A00 X   3     192.047 138.724  99.5880  0.00  0.00     0.000 O
ATOM     49  HD  A00 X   3     192.814 138.916  99.2370  0.00  0.00     0.000 HD
BRANCH 42 49
ATOM     49   O  A00 X   3     190.777 141.475  99.8980  0.00  0.00     0.000 O
ATOM     50   O  A00 X   3     191.727 141.431 102.0950  0.00  0.00     0.000 OA
ATOM     51   O  A00 X   3     190.050 139.857 101.5450  0.00  0.00     0.000 OA
ATOM     52   O  A00 X   3     189.445 142.136 101.7160  0.00  0.00     0.000 OA
ATOM     53   S  A00 X   3     190.492 141.223 101.4070  0.00  0.00     0.000 S
ENDBRANCH 42 49
BRANCH 45 54
ATOM     54   C  A00 X   3     191.769 140.040  95.3970  0.00  0.00     0.000 C
ATOM     55   O  A00 X   3     191.608 140.457  94.2680  0.00  0.00     0.000 OA
ATOM     56   O  A00 X   3     191.643 138.842  95.5990  0.00  0.00     0.000 OA
ENDBRANCH 45 54
BRANCH 41 57
ATOM     57  O4  A00 X   4     189.000 140.486  96.8590  0.00  0.00     0.000 O
BRANCH 57 61
ATOM     58  C1  A00 X   4     186.038 141.642  93.9380  0.00  0.00     0.000 C
ATOM     59  C2  A00 X   4     187.370 141.027  93.4400  0.00  0.00     0.000 C
ATOM     60  C3  A00 X   4     188.181 140.332  94.5540  0.00  0.00     0.000 C
ATOM     61  C4  A00 X   4     188.300 141.217  95.8130  0.00  0.00     0.000 C
ATOM     62  C5  A00 X   4     186.852 141.538  96.2590  0.00  0.00     0.000 C
ATOM     63  O5  A00 X   4     186.190 142.299  95.2170  0.00  0.00     0.000 O
BRANCH 59 66
ATOM     64   N  A00 X   4     188.298 142.030  92.8870  0.00  0.00     0.000 N
ATOM     66  HD  A00 X   4     188.257 142.833  93.2090  0.00  0.00     0.000 HD
ATOM     66   O  A00 X   4     187.012 141.951  90.8530  0.00  0.00     0.000 OA
ATOM     67   S  A00 X   4     188.341 142.228  91.3010  0.00  0.00     0.000 S
ATOM     68   O  A00 X   4     188.745 143.602  91.2230  0.00  0.00     0.000 OA
ATOM     69   O  A00 X   4     189.373 141.291  90.9560  0.00  0.00     0.000 OA
ENDBRANCH 59 66
BRANCH 62 70
ATOM     70   C  A00 X   4     186.761 142.334  97.5830  0.00  0.00     0.000 C
ATOM     71   O  A00 X   4     187.266 145.877  98.1310  0.00  0.00     0.000 OA
ATOM     72   O  A00 X   4     188.143 144.009  99.2650  0.00  0.00     0.000 OA
ATOM     73   O  A00 X   4     186.790 143.741  97.2940  0.00  0.00     0.000 O
ATOM     74   O  A00 X   4     189.026 144.612  97.0750  0.00  0.00     0.000 OA
ATOM     75   S  A00 X   4     187.913 144.605  97.9680  0.00  0.00     0.000 S
ENDBRANCH 62 70
ENDBRANCH 57 61
ENDBRANCH 41 57
ENDBRANCH 40 44
ENDBRANCH 20 40
ENDBRANCH 19 23
ENDBRANCH 1 19
TORSDOF 14
ENDMDL
MODEL 97
REMARK VINA RESULT:      -0.2    136.117    142.012
ROOT
ATOM      1  C1  A00 X   1      52.466 120.799  10.6170  0.00  0.00     0.000 C
ATOM      2  C2  A00 X   1      51.880 120.258  11.9480  0.00  0.00     0.000 C
ATOM      3  C3  A00 X   1      50.433 120.733  12.3050  0.00  0.00     0.000 C
ATOM      4  C4  A00 X   1      49.911 121.950  11.4990  0.00  0.00     0.000 C
ATOM      5  C5  A00 X   1      51.049 122.787  10.9150  0.00  0.00     0.000 C
ATOM      6  O5  A00 X   1      51.735 121.892  10.0090  0.00  0.00     0.000 O
ATOM      7   O  A00 X   1      50.402 121.115  13.6790  0.00  0.00     0.000 O
ATOM      9  HD  A00 X   1      49.940 121.701  13.2400  0.00  0.00     0.000 HD
ATOM      9   O  A00 X   1      49.026 121.544  10.4550  0.00  0.00     0.000 O
ATOM     11  HD  A00 X   1      48.564 122.130  10.0170  0.00  0.00     0.000 HD
ENDROOT
BRANCH 2 11
ATOM     11   O  A00 X   1      51.898 118.818  11.8820  0.00  0.00     0.000 O
ATOM     12   O  A00 X   1      50.871 117.457  13.5730  0.00  0.00     0.000 OA
ATOM     13   O  A00 X   1      52.760 118.869  14.1670  0.00  0.00     0.000 OA
ATOM     14   O  A00 X   1      53.063 116.988  12.7430  0.00  0.00     0.000 OA
ATOM     15   S  A00 X   1      52.151 118.002  13.1960  0.00  0.00     0.000 S
ENDBRANCH 2 11
BRANCH 5 16
ATOM     16   C  A00 X   1      51.973 123.437  11.9500  0.00  0.00     0.000 C
ATOM     17   O  A00 X   1      51.586 123.529  13.0970  0.00  0.00     0.000 OA
ATOM     18   O  A00 X   1      53.077 123.856  11.6660  0.00  0.00     0.000 OA
ENDBRANCH 5 16
BRANCH 1 19
ATOM     19  O4  A00 X   2      53.881 121.095  10.7070  0.00  0.00     0.000 O
BRANCH 19 23
ATOM     20  C1  A00 X   2      54.767 119.701   6.7520  0.00  0.00     0.000 C
ATOM     21  C2  A00 X   2      54.937 118.697   7.9180  0.00  0.00     0.000 C
ATOM     22  C3  A00 X   2      54.187 119.184   9.1760  0.00  0.00     0.000 C
ATOM     23  C4  A00 X   2      54.626 120.618   9.5500  0.00  0.00     0.000 C
ATOM     24  C5  A00 X   2      54.426 121.517   8.2990  0.00  0.00     0.000 C
ATOM     25  O5  A00 X   2      55.237 120.996   7.2140  0.00  0.00     0.000 O
ATOM     26   O  A00 X   2      54.318 118.189  10.2050  0.00  0.00     0.000 O
ATOM     28  HD  A00 X   2      55.177 118.136  10.1150  0.00  0.00     0.000 HD
BRANCH 21 30
ATOM     28   N  A00 X   2      56.072 118.111   7.1990  0.00  0.00     0.000 N
ATOM     30  HD  A00 X   2      55.843 117.543   7.8110  0.00  0.00     0.000 HD
ATOM     30   O  A00 X   2      56.158 115.833   7.7080  0.00  0.00     0.000 OA
ATOM     31   S  A00 X   2      56.936 117.002   7.9200  0.00  0.00     0.000 S
ATOM     32   O  A00 X   2      58.182 117.033   7.2190  0.00  0.00     0.000 OA
ATOM     33   O  A00 X   2      57.119 117.423   9.2770  0.00  0.00     0.000 OA
ENDBRANCH 21 30
BRANCH 24 34
ATOM     34   C  A00 X   2      54.574 123.047   8.4730  0.00  0.00     0.000 C
ATOM     35   O  A00 X   2      56.927 125.096   6.5960  0.00  0.00     0.000 OA
ATOM     36   O  A00 X   2      55.797 123.525   7.8770  0.00  0.00     0.000 O
ATOM     37   O  A00 X   2      55.306 123.693   5.5970  0.00  0.00     0.000 OA
ATOM     38   S  A00 X   2      55.613 124.551   6.7000  0.00  0.00     0.000 S
ATOM     39   O  A00 X   2      54.604 125.475   7.1230  0.00  0.00     0.000 OA
ENDBRANCH 24 34
BRANCH 20 40
ATOM     40  O4  A00 X   3      53.356 119.765   6.4980  0.00  0.00     0.000 O
BRANCH 40 44
ATOM     41  C1  A00 X   3      50.331 121.560   5.6350  0.00  0.00     0.000 C
ATOM     42  C2  A00 X   3      50.409 120.040   5.8910  0.00  0.00     0.000 C
ATOM     43  C3  A00 X   3      51.542 119.394   5.0520  0.00  0.00     0.000 C
ATOM     44  C4  A00 X   3      52.892 120.089   5.1700  0.00  0.00     0.000 C
ATOM     45  C5  A00 X   3      52.732 121.611   4.8950  0.00  0.00     0.000 C
ATOM     46  O5  A00 X   3      51.647 122.176   5.6990  0.00  0.00     0.000 O
ATOM     47   O  A00 X   3      51.652 117.974   5.1420  0.00  0.00     0.000 O
ATOM     49  HD  A00 X   3      52.499 118.152   5.1300  0.00  0.00     0.000 HD
BRANCH 42 49
ATOM     49   O  A00 X   3      50.631 119.859   7.3060  0.00  0.00     0.000 O
ATOM     50   O  A00 X   3      50.955 118.006   8.7870  0.00  0.00     0.000 OA
ATOM     51   O  A00 X   3      49.319 117.838   7.0890  0.00  0.00     0.000 OA
ATOM     52   O  A00 X   3      48.949 119.353   8.8640  0.00  0.00     0.000 OA
ATOM     53   S  A00 X   3      49.930 118.698   8.0710  0.00  0.00     0.000 S
ENDBRANCH 42 49
BRANCH 45 54
ATOM     54   C  A00 X   3      52.590 121.906   3.3970  0.00  0.00     0.000 C
ATOM     55   O  A00 X   3      52.257 121.031   2.6230  0.00  0.00     0.000 OA
ATOM     56   O  A00 X   3      52.810 123.023   2.9560  0.00  0.00     0.000 OA
ENDBRANCH 45 54
BRANCH 41 57
ATOM     57  O4  A00 X   4      49.599 121.862   4.4260  0.00  0.00     0.000 O
BRANCH 57 61
ATOM     58  C1  A00 X   4      47.894 125.509   2.8680  0.00  0.00     0.000 C
ATOM     59  C2  A00 X   4      49.353 125.152   2.4890  0.00  0.00     0.000 C
ATOM     60  C3  A00 X   4      49.726 123.687   2.7940  0.00  0.00     0.000 C
ATOM     61  C4  A00 X   4      49.301 123.272   4.2190  0.00  0.00     0.000 C
ATOM     62  C5  A00 X   4      47.774 123.515   4.3060  0.00  0.00     0.000 C
ATOM     63  O5  A00 X   4      47.506 124.930   4.1350  0.00  0.00     0.000 O
BRANCH 59 66
ATOM     64   N  A00 X   4      50.758 125.563   2.3210  0.00  0.00     0.000 N
ATOM     66  HD  A00 X   4      51.238 125.651   3.0360  0.00  0.00     0.000 HD
ATOM     66   O  A00 X   4      49.940 127.734   1.6740  0.00  0.00     0.000 OA
ATOM     67   S  A00 X   4      51.065 126.877   1.4620  0.00  0.00     0.000 S
ATOM     68   O  A00 X   4      52.290 127.305   2.0720  0.00  0.00     0.000 OA
ATOM     69   O  A00 X   4      51.227 126.296   0.1590  0.00  0.00     0.000 OA
ENDBRANCH 59 66
BRANCH 62 70
ATOM     70   C  A00 X   4      47.135 123.051   5.6370  0.00  0.00     0.000 C
ATOM     71   O  A00 X   4      47.258 124.651   8.8830  0.00  0.00     0.000 OA
ATOM     72   O  A00 X   4      47.675 122.420   8.2550  0.00  0.00     0.000 OA
ATOM     73   O  A00 X   4      47.229 124.111   6.6030  0.00  0.00     0.000 O
ATOM     74   O  A00 X   4      49.336 124.137   7.7720  0.00  0.00     0.000 OA
ATOM     75   S  A00 X   4      47.959 123.807   7.9570  0.00  0.00     0.000 S
ENDBRANCH 62 70
ENDBRANCH 57 61
ENDBRANCH 41 57
ENDBRANCH 40 44
ENDBRANCH 20 40
ENDBRANCH 19 23
ENDBRANCH 1 19
TORSDOF 14
ENDMDL
MODEL 98
REMARK VINA RESULT:      -0.2    119.623    123.086
ROOT
ATOM      1  C1  A00 X   1     188.957 149.540   5.6280  0.00  0.00     0.000 C
ATOM      2  C2  A00 X   1     189.637 148.150   5.5070  0.00  0.00     0.000 C
ATOM      3  C3  A00 X   1     190.836 147.885   6.4760  0.00  0.00     0.000 C
ATOM      4  C4  A00 X   1     191.428 149.141   7.1660  0.00  0.00     0.000 C
ATOM      5  C5  A00 X   1     191.122 150.423   6.3930  0.00  0.00     0.000 C
ATOM      6  O5  A00 X   1     189.680 150.525   6.4080  0.00  0.00     0.000 O
ATOM      7   O  A00 X   1     191.900 147.290   5.7360  0.00  0.00     0.000 O
ATOM      9  HD  A00 X   1     192.255 147.870   6.2730  0.00  0.00     0.000 HD
ATOM      9   O  A00 X   1     190.965 149.265   8.5100  0.00  0.00     0.000 O
ATOM     11  HD  A00 X   1     191.320 149.845   9.0470  0.00  0.00     0.000 HD
ENDROOT
BRANCH 2 11
ATOM     11   O  A00 X   1     188.626 147.147   5.7250  0.00  0.00     0.000 O
ATOM     12   O  A00 X   1     189.169 144.814   5.9010  0.00  0.00     0.000 OA
ATOM     13   O  A00 X   1     189.578 145.977   3.8040  0.00  0.00     0.000 OA
ATOM     14   O  A00 X   1     187.354 145.583   4.5490  0.00  0.00     0.000 OA
ATOM     15   S  A00 X   1     188.721 145.793   4.9420  0.00  0.00     0.000 S
ENDBRANCH 2 11
BRANCH 5 16
ATOM     16   C  A00 X   1     191.726 150.492   4.9870  0.00  0.00     0.000 C
ATOM     17   O  A00 X   1     191.359 151.376   4.2390  0.00  0.00     0.000 OA
ATOM     18   O  A00 X   1     192.562 149.701   4.5970  0.00  0.00     0.000 OA
ENDBRANCH 5 16
BRANCH 1 19
ATOM     19  O4  A00 X   2     188.549 150.079   4.3460  0.00  0.00     0.000 O
BRANCH 19 23
ATOM     20  C1  A00 X   2     184.923 151.786   5.8640  0.00  0.00     0.000 C
ATOM     21  C2  A00 X   2     184.831 150.394   5.1920  0.00  0.00     0.000 C
ATOM     22  C3  A00 X   2     186.224 149.737   5.0980  0.00  0.00     0.000 C
ATOM     23  C4  A00 X   2     187.223 150.680   4.3900  0.00  0.00     0.000 C
ATOM     24  C5  A00 X   2     187.208 152.038   5.1430  0.00  0.00     0.000 C
ATOM     25  O5  A00 X   2     185.864 152.583   5.0970  0.00  0.00     0.000 O
ATOM     26   O  A00 X   2     186.077 148.423   4.5320  0.00  0.00     0.000 O
ATOM     28  HD  A00 X   2     185.604 148.708   3.8650  0.00  0.00     0.000 HD
BRANCH 21 30
ATOM     28   N  A00 X   2     184.405 148.997   5.3240  0.00  0.00     0.000 N
ATOM     30  HD  A00 X   2     183.687 149.469   5.2150  0.00  0.00     0.000 HD
ATOM     30   O  A00 X   2     182.203 148.833   4.5600  0.00  0.00     0.000 OA
ATOM     31   S  A00 X   2     182.921 148.696   5.7780  0.00  0.00     0.000 S
ATOM     32   O  A00 X   2     182.988 147.363   6.2920  0.00  0.00     0.000 OA
ATOM     33   O  A00 X   2     182.604 149.619   6.8270  0.00  0.00     0.000 OA
ENDBRANCH 21 30
BRANCH 24 34
ATOM     34   C  A00 X   2     188.288 153.083   4.7760  0.00  0.00     0.000 C
ATOM     35   O  A00 X   2     187.556 156.450   3.5990  0.00  0.00     0.000 OA
ATOM     36   O  A00 X   2     187.726 154.173   4.0190  0.00  0.00     0.000 O
ATOM     37   O  A00 X   2     186.741 155.553   5.6300  0.00  0.00     0.000 OA
ATOM     38   S  A00 X   2     187.829 155.586   4.7010  0.00  0.00     0.000 S
ATOM     39   O  A00 X   2     189.155 155.683   5.2330  0.00  0.00     0.000 OA
ENDBRANCH 24 34
BRANCH 20 40
ATOM     40  O4  A00 X   3     185.452 151.549   7.1760  0.00  0.00     0.000 O
BRANCH 40 44
ATOM     41  C1  A00 X   3     187.524 152.416  10.0190  0.00  0.00     0.000 C
ATOM     42  C2  A00 X   3     186.590 151.188   9.9520  0.00  0.00     0.000 C
ATOM     43  C3  A00 X   3     185.163 151.599   9.5070  0.00  0.00     0.000 C
ATOM     44  C4  A00 X   3     185.115 152.456   8.2480  0.00  0.00     0.000 C
ATOM     45  C5  A00 X   3     186.074 153.670   8.3930  0.00  0.00     0.000 C
ATOM     46  O5  A00 X   3     187.405 153.237   8.8240  0.00  0.00     0.000 O
ATOM     47   O  A00 X   3     184.190 150.557   9.4930  0.00  0.00     0.000 O
ATOM     49  HD  A00 X   3     183.932 150.961   8.7720  0.00  0.00     0.000 HD
BRANCH 42 49
ATOM     49   O  A00 X   3     187.184 150.254   9.0240  0.00  0.00     0.000 O
ATOM     50   O  A00 X   3     186.627 148.102   8.1360  0.00  0.00     0.000 OA
ATOM     51   O  A00 X   3     186.264 148.517  10.4350  0.00  0.00     0.000 OA
ATOM     52   O  A00 X   3     188.489 148.405   9.6480  0.00  0.00     0.000 OA
ATOM     53   S  A00 X   3     187.145 148.725   9.3130  0.00  0.00     0.000 S
ENDBRANCH 42 49
BRANCH 45 54
ATOM     54   C  A00 X   3     185.476 154.762   9.2880  0.00  0.00     0.000 C
ATOM     55   O  A00 X   3     186.006 155.851   9.3750  0.00  0.00     0.000 OA
ATOM     56   O  A00 X   3     184.457 154.556   9.9300  0.00  0.00     0.000 OA
ENDBRANCH 45 54
BRANCH 41 57
ATOM     57  O4  A00 X   4     187.356 153.148  11.2540  0.00  0.00     0.000 O
BRANCH 57 61
ATOM     58  C1  A00 X   4     190.064 155.449  13.7050  0.00  0.00     0.000 C
ATOM     59  C2  A00 X   4     189.758 155.947  12.2710  0.00  0.00     0.000 C
ATOM     60  C3  A00 X   4     188.529 155.267  11.6330  0.00  0.00     0.000 C
ATOM     61  C4  A00 X   4     188.574 153.733  11.7960  0.00  0.00     0.000 C
ATOM     62  C5  A00 X   4     188.670 153.458  13.3170  0.00  0.00     0.000 C
ATOM     63  O5  A00 X   4     189.908 154.017  13.8260  0.00  0.00     0.000 O
BRANCH 59 66
ATOM     64   N  A00 X   4     190.884 155.643  11.3700  0.00  0.00     0.000 N
ATOM     66  HD  A00 X   4     191.377 154.957  11.5630  0.00  0.00     0.000 HD
ATOM     66   O  A00 X   4     191.962 157.625  12.2120  0.00  0.00     0.000 OA
ATOM     67   S  A00 X   4     191.925 156.811  11.0370  0.00  0.00     0.000 S
ATOM     68   O  A00 X   4     193.106 156.040  10.7830  0.00  0.00     0.000 OA
ATOM     69   O  A00 X   4     191.317 157.363   9.8590  0.00  0.00     0.000 OA
ENDBRANCH 59 66
BRANCH 62 70
ATOM     70   C  A00 X   4     188.616 151.958  13.6940  0.00  0.00     0.000 C
ATOM     71   O  A00 X   4     191.088 149.384  13.0860  0.00  0.00     0.000 OA
ATOM     72   O  A00 X   4     188.769 149.410  12.6800  0.00  0.00     0.000 OA
ATOM     73   O  A00 X   4     189.909 151.369  13.4840  0.00  0.00     0.000 O
ATOM     74   O  A00 X   4     190.261 150.654  11.2100  0.00  0.00     0.000 OA
ATOM     75   S  A00 X   4     190.007 150.139  12.5160  0.00  0.00     0.000 S
ENDBRANCH 62 70
ENDBRANCH 57 61
ENDBRANCH 41 57
ENDBRANCH 40 44
ENDBRANCH 20 40
ENDBRANCH 19 23
ENDBRANCH 1 19
TORSDOF 14
ENDMDL
MODEL 99
REMARK VINA RESULT:      -0.2    161.431    166.406
ROOT
ATOM      1  C1  A00 X   1     154.796 169.430 171.2250  0.00  0.00     0.000 C
ATOM      2  C2  A00 X   1     154.524 168.824 172.6270  0.00  0.00     0.000 C
ATOM      3  C3  A00 X   1     153.656 169.694 173.5950  0.00  0.00     0.000 C
ATOM      4  C4  A00 X   1     153.487 171.180 173.1880  0.00  0.00     0.000 C
ATOM      5  C5  A00 X   1     154.602 171.654 172.2550  0.00  0.00     0.000 C
ATOM      6  O5  A00 X   1     154.466 170.833 171.0740  0.00  0.00     0.000 O
ATOM      7   O  A00 X   1     154.268 169.695 174.8830  0.00  0.00     0.000 O
ATOM      9  HD  A00 X   1     153.995 170.502 174.7300  0.00  0.00     0.000 HD
ATOM      9   O  A00 X   1     152.217 171.412 172.5780  0.00  0.00     0.000 O
ATOM     11  HD  A00 X   1     151.943 172.220 172.4250  0.00  0.00     0.000 HD
ENDROOT
BRANCH 2 11
ATOM     11   O  A00 X   1     153.880 167.549 172.4370  0.00  0.00     0.000 O
ATOM     12   O  A00 X   1     153.440 166.062 174.2710  0.00  0.00     0.000 OA
ATOM     13   O  A00 X   1     155.743 166.584 173.6880  0.00  0.00     0.000 OA
ATOM     14   O  A00 X   1     154.395 165.282 172.2230  0.00  0.00     0.000 OA
ATOM     15   S  A00 X   1     154.409 166.306 173.2320  0.00  0.00     0.000 S
ENDBRANCH 2 11
BRANCH 5 16
ATOM     16   C  A00 X   1     156.008 171.627 172.8620  0.00  0.00     0.000 C
ATOM     17   O  A00 X   1     156.959 171.833 172.1350  0.00  0.00     0.000 OA
ATOM     18   O  A00 X   1     156.205 171.416 174.0420  0.00  0.00     0.000 OA
ENDBRANCH 5 16
BRANCH 1 19
ATOM     19  O4  A00 X   2     156.131 169.146 170.7400  0.00  0.00     0.000 O
BRANCH 19 23
ATOM     20  C1  A00 X   2     155.026 168.978 166.6030  0.00  0.00     0.000 C
ATOM     21  C2  A00 X   2     154.903 167.675 167.4290  0.00  0.00     0.000 C
ATOM     22  C3  A00 X   2     154.910 167.980 168.9410  0.00  0.00     0.000 C
ATOM     23  C4  A00 X   2     156.153 168.816 169.3210  0.00  0.00     0.000 C
ATOM     24  C5  A00 X   2     156.171 170.078 168.4160  0.00  0.00     0.000 C
ATOM     25  O5  A00 X   2     156.238 169.656 167.0290  0.00  0.00     0.000 O
ATOM     26   O  A00 X   2     154.725 166.749 169.6610  0.00  0.00     0.000 O
ATOM     28  HD  A00 X   2     155.351 166.340 169.2230  0.00  0.00     0.000 HD
BRANCH 21 30
ATOM     28   N  A00 X   2     155.284 166.924 166.2280  0.00  0.00     0.000 N
ATOM     30  HD  A00 X   2     154.946 166.352 166.7850  0.00  0.00     0.000 HD
ATOM     30   O  A00 X   2     154.215 164.847 166.3000  0.00  0.00     0.000 OA
ATOM     31   S  A00 X   2     155.535 165.368 166.3540  0.00  0.00     0.000 S
ATOM     32   O  A00 X   2     156.352 165.064 165.2210  0.00  0.00     0.000 OA
ATOM     33   O  A00 X   2     156.268 165.154 167.5670  0.00  0.00     0.000 OA
ENDBRANCH 21 30
BRANCH 24 34
ATOM     34   C  A00 X   2     157.186 171.197 168.7500  0.00  0.00     0.000 C
ATOM     35   O  A00 X   2     159.548 172.590 166.3540  0.00  0.00     0.000 OA
ATOM     36   O  A00 X   2     158.208 171.294 167.7370  0.00  0.00     0.000 O
ATOM     37   O  A00 X   2     157.208 172.525 166.0180  0.00  0.00     0.000 OA
ATOM     38   S  A00 X   2     158.265 172.667 166.9720  0.00  0.00     0.000 S
ATOM     39   O  A00 X   2     158.129 173.690 167.9650  0.00  0.00     0.000 OA
ENDBRANCH 24 34
BRANCH 20 40
ATOM     40  O4  A00 X   3     153.883 169.770 166.9560  0.00  0.00     0.000 O
BRANCH 40 44
ATOM     41  C1  A00 X   3     151.961 172.773 167.6010  0.00  0.00     0.000 C
ATOM     42  C2  A00 X   3     151.373 171.346 167.5460  0.00  0.00     0.000 C
ATOM     43  C3  A00 X   3     151.808 170.616 166.2500  0.00  0.00     0.000 C
ATOM     44  C4  A00 X   3     153.306 170.655 165.9730  0.00  0.00     0.000 C
ATOM     45  C5  A00 X   3     153.821 172.121 166.0400  0.00  0.00     0.000 C
ATOM     46  O5  A00 X   3     153.379 172.774 167.2740  0.00  0.00     0.000 O
ATOM     47   O  A00 X   3     151.252 169.317 166.0500  0.00  0.00     0.000 O
ATOM     49  HD  A00 X   3     152.048 169.146 165.7540  0.00  0.00     0.000 HD
BRANCH 42 49
ATOM     49   O  A00 X   3     151.838 170.652 168.7250  0.00  0.00     0.000 O
ATOM     50   O  A00 X   3     151.605 168.454 169.6450  0.00  0.00     0.000 OA
ATOM     51   O  A00 X   3     149.713 169.493 168.6800  0.00  0.00     0.000 OA
ATOM     52   O  A00 X   3     150.583 170.380 170.6910  0.00  0.00     0.000 OA
ATOM     53   S  A00 X   3     150.891 169.682 169.4900  0.00  0.00     0.000 S
ENDBRANCH 42 49
BRANCH 45 54
ATOM     54   C  A00 X   3     153.457 172.909 164.7760  0.00  0.00     0.000 C
ATOM     55   O  A00 X   3     154.089 173.896 164.4590  0.00  0.00     0.000 OA
ATOM     56   O  A00 X   3     152.525 172.559 164.0680  0.00  0.00     0.000 OA
ENDBRANCH 45 54
BRANCH 41 57
ATOM     57  O4  A00 X   4     151.178 173.703 166.8210  0.00  0.00     0.000 O
BRANCH 57 61
ATOM     58  C1  A00 X   4     150.972 178.016 166.8560  0.00  0.00     0.000 C
ATOM     59  C2  A00 X   4     151.796 177.322 165.7430  0.00  0.00     0.000 C
ATOM     60  C3  A00 X   4     151.508 175.812 165.6150  0.00  0.00     0.000 C
ATOM     61  C4  A00 X   4     151.537 175.105 166.9860  0.00  0.00     0.000 C
ATOM     62  C5  A00 X   4     150.490 175.825 167.8720  0.00  0.00     0.000 C
ATOM     63  O5  A00 X   4     150.890 177.208 168.0530  0.00  0.00     0.000 O
BRANCH 59 66
ATOM     64   N  A00 X   4     153.250 177.396 165.9710  0.00  0.00     0.000 N
ATOM     66  HD  A00 X   4     153.525 177.429 166.7920  0.00  0.00     0.000 HD
ATOM     66   O  A00 X   4     153.171 179.639 165.0980  0.00  0.00     0.000 OA
ATOM     67   S  A00 X   4     154.077 178.540 165.2190  0.00  0.00     0.000 S
ATOM     68   O  A00 X   4     155.157 178.729 166.1440  0.00  0.00     0.000 OA
ATOM     69   O  A00 X   4     154.445 177.840 164.0210  0.00  0.00     0.000 OA
ENDBRANCH 59 66
BRANCH 62 70
ATOM     70   C  A00 X   4     150.292 175.184 169.2660  0.00  0.00     0.000 C
ATOM     71   O  A00 X   4     152.369 175.498 172.2150  0.00  0.00     0.000 OA
ATOM     72   O  A00 X   4     151.477 173.590 171.1630  0.00  0.00     0.000 OA
ATOM     73   O  A00 X   4     151.213 175.777 170.1960  0.00  0.00     0.000 O
ATOM     74   O  A00 X   4     153.385 174.733 170.1670  0.00  0.00     0.000 OA
ATOM     75   S  A00 X   4     152.200 174.825 170.9580  0.00  0.00     0.000 S
ENDBRANCH 62 70
ENDBRANCH 57 61
ENDBRANCH 41 57
ENDBRANCH 40 44
ENDBRANCH 20 40
ENDBRANCH 19 23
ENDBRANCH 1 19
TORSDOF 14
ENDMDL
MODEL 100
REMARK VINA RESULT:      -0.2    161.064    166.102
ROOT
ATOM      1  C1  A00 X   1     156.299 169.314 170.7870  0.00  0.00     0.000 C
ATOM      2  C2  A00 X   1     155.892 168.809 172.1960  0.00  0.00     0.000 C
ATOM      3  C3  A00 X   1     155.272 169.877 173.1560  0.00  0.00     0.000 C
ATOM      4  C4  A00 X   1     155.475 171.355 172.7330  0.00  0.00     0.000 C
ATOM      5  C5  A00 X   1     156.669 171.527 171.7930  0.00  0.00     0.000 C
ATOM      6  O5  A00 X   1     156.328 170.753 170.6210  0.00  0.00     0.000 O
ATOM      7   O  A00 X   1     155.871 169.739 174.4430  0.00  0.00     0.000 O
ATOM      9  HD  A00 X   1     155.806 170.587 174.2820  0.00  0.00     0.000 HD
ATOM      9   O  A00 X   1     154.301 171.889 172.1230  0.00  0.00     0.000 O
ATOM     11  HD  A00 X   1     154.235 172.738 171.9620  0.00  0.00     0.000 HD
ENDROOT
BRANCH 2 11
ATOM     11   O  A00 X   1     154.950 167.733 172.0220  0.00  0.00     0.000 O
ATOM     12   O  A00 X   1     154.163 166.420 173.8720  0.00  0.00     0.000 OA
ATOM     13   O  A00 X   1     156.521 166.347 173.2790  0.00  0.00     0.000 OA
ATOM     14   O  A00 X   1     154.884 165.406 171.8320  0.00  0.00     0.000 OA
ATOM     15   S  A00 X   1     155.157 166.405 172.8290  0.00  0.00     0.000 S
ENDBRANCH 2 11
BRANCH 5 16
ATOM     16   C  A00 X   1     158.028 171.157 172.3980  0.00  0.00     0.000 C
ATOM     17   O  A00 X   1     158.996 171.113 171.6670  0.00  0.00     0.000 OA
ATOM     18   O  A00 X   1     158.171 170.916 173.5800  0.00  0.00     0.000 OA
ENDBRANCH 5 16
BRANCH 1 19
ATOM     19  O4  A00 X   2     157.520 168.702 170.3030  0.00  0.00     0.000 O
BRANCH 19 23
ATOM     20  C1  A00 X   2     156.389 168.772 166.1700  0.00  0.00     0.000 C
ATOM     21  C2  A00 X   2     155.950 167.549 167.0100  0.00  0.00     0.000 C
ATOM     22  C3  A00 X   2     156.039 167.858 168.5190  0.00  0.00     0.000 C
ATOM     23  C4  A00 X   2     157.452 168.363 168.8880  0.00  0.00     0.000 C
ATOM     24  C5  A00 X   2     157.779 169.571 167.9680  0.00  0.00     0.000 C
ATOM     25  O5  A00 X   2     157.733 169.132 166.5860  0.00  0.00     0.000 O
ATOM     26   O  A00 X   2     155.557 166.719 169.2530  0.00  0.00     0.000 O
ATOM     28  HD  A00 X   2     156.060 166.163 168.8180  0.00  0.00     0.000 HD
BRANCH 21 30
ATOM     28   N  A00 X   2     156.126 166.715 165.8170  0.00  0.00     0.000 N
ATOM     30  HD  A00 X   2     155.660 166.251 166.3800  0.00  0.00     0.000 HD
ATOM     30   O  A00 X   2     154.575 164.970 165.9140  0.00  0.00     0.000 OA
ATOM     31   S  A00 X   2     155.983 165.147 165.9600  0.00  0.00     0.000 S
ATOM     32   O  A00 X   2     156.694 164.638 164.8280  0.00  0.00     0.000 OA
ATOM     33   O  A00 X   2     156.645 164.770 167.1730  0.00  0.00     0.000 OA
ENDBRANCH 21 30
BRANCH 24 34
ATOM     34   C  A00 X   2     159.042 170.406 168.2880  0.00  0.00     0.000 C
ATOM     35   O  A00 X   2     161.665 171.144 165.8730  0.00  0.00     0.000 OA
ATOM     36   O  A00 X   2     160.051 170.236 167.2730  0.00  0.00     0.000 O
ATOM     37   O  A00 X   2     159.381 171.659 165.5420  0.00  0.00     0.000 OA
ATOM     38   S  A00 X   2     160.445 171.544 166.4920  0.00  0.00     0.000 S
ATOM     39   O  A00 X   2     160.572 172.578 167.4740  0.00  0.00     0.000 OA
ENDBRANCH 24 34
BRANCH 20 40
ATOM     40  O4  A00 X   3     155.481 169.827 166.5170  0.00  0.00     0.000 O
BRANCH 40 44
ATOM     41  C1  A00 X   3     154.369 173.220 167.1320  0.00  0.00     0.000 C
ATOM     42  C2  A00 X   3     153.444 171.984 167.0940  0.00  0.00     0.000 C
ATOM     43  C3  A00 X   3     153.678 171.155 165.8050  0.00  0.00     0.000 C
ATOM     44  C4  A00 X   3     155.137 170.818 165.5240  0.00  0.00     0.000 C
ATOM     45  C5  A00 X   3     156.000 172.110 165.5750  0.00  0.00     0.000 C
ATOM     46  O5  A00 X   3     155.740 172.865 166.8020  0.00  0.00     0.000 O
ATOM     47   O  A00 X   3     152.816 170.034 165.6200  0.00  0.00     0.000 O
ATOM     49  HD  A00 X   3     153.542 169.667 165.3250  0.00  0.00     0.000 HD
BRANCH 42 49
ATOM     49   O  A00 X   3     153.726 171.208 168.2790  0.00  0.00     0.000 O
ATOM     50   O  A00 X   3     152.959 169.146 169.2240  0.00  0.00     0.000 OA
ATOM     51   O  A00 X   3     151.380 170.613 168.2510  0.00  0.00     0.000 OA
ATOM     52   O  A00 X   3     152.452 171.276 170.2510  0.00  0.00     0.000 OA
ATOM     53   S  A00 X   3     152.572 170.512 169.0570  0.00  0.00     0.000 S
ENDBRANCH 42 49
BRANCH 45 54
ATOM     54   C  A00 X   3     155.838 172.951 164.3030  0.00  0.00     0.000 C
ATOM     55   O  A00 X   3     156.694 173.747 163.9740  0.00  0.00     0.000 OA
ATOM     56   O  A00 X   3     154.845 172.837 163.6000  0.00  0.00     0.000 OA
ENDBRANCH 45 54
BRANCH 41 57
ATOM     57  O4  A00 X   4     153.837 174.308 166.3430  0.00  0.00     0.000 O
BRANCH 57 61
ATOM     58  C1  A00 X   4     154.710 178.536 166.3320  0.00  0.00     0.000 C
ATOM     59  C2  A00 X   4     155.331 177.648 165.2250  0.00  0.00     0.000 C
ATOM     60  C3  A00 X   4     154.675 176.257 165.1140  0.00  0.00     0.000 C
ATOM     61  C4  A00 X   4     154.535 175.578 166.4930  0.00  0.00     0.000 C
ATOM     62  C5  A00 X   4     153.704 176.545 167.3720  0.00  0.00     0.000 C
ATOM     63  O5  A00 X   4     154.435 177.787 167.5370  0.00  0.00     0.000 O
BRANCH 59 66
ATOM     64   N  A00 X   4     156.759 177.361 165.4490  0.00  0.00     0.000 N
ATOM     66  HD  A00 X   4     157.037 177.332 166.2690  0.00  0.00     0.000 HD
ATOM     66   O  A00 X   4     157.236 179.544 164.5520  0.00  0.00     0.000 OA
ATOM     67   S  A00 X   4     157.841 178.256 164.6830  0.00  0.00     0.000 S
ATOM     68   O  A00 X   4     158.938 178.180 165.6030  0.00  0.00     0.000 OA
ATOM     69   O  A00 X   4     158.017 177.474 163.4920  0.00  0.00     0.000 OA
ENDBRANCH 59 66
BRANCH 62 70
ATOM     70   C  A00 X   4     153.359 175.987 168.7740  0.00  0.00     0.000 C
ATOM     71   O  A00 X   4     155.462 175.805 171.7150  0.00  0.00     0.000 OA
ATOM     72   O  A00 X   4     154.119 174.168 170.6860  0.00  0.00     0.000 OA
ATOM     73   O  A00 X   4     154.403 176.342 169.6950  0.00  0.00     0.000 O
ATOM     74   O  A00 X   4     156.246 174.790 169.6730  0.00  0.00     0.000 OA
ATOM     75   S  A00 X   4     155.125 175.182 170.4660  0.00  0.00     0.000 S
ENDBRANCH 62 70
ENDBRANCH 57 61
ENDBRANCH 41 57
ENDBRANCH 40 44
ENDBRANCH 20 40
ENDBRANCH 19 23
ENDBRANCH 1 19
TORSDOF 14
ENDMDL
