MODEL 1
REMARK VINA RESULT:      -7.5      0.000      0.000
ROOT
ATOM      1  C1  Z9H D   1      26.435  28.354 -19.9780  0.00  0.00     0.000 C
ATOM      2  C2  Z9H D   1      25.815  29.741 -19.6880  0.00  0.00     0.000 C
ATOM      3  C3  Z9H D   1      24.881  29.325 -18.5100  0.00  0.00     0.000 C
ATOM      4  C4  Z9H D   1      23.957  28.068 -18.7870  0.00  0.00     0.000 C
ATOM      5  C5  Z9H D   1      24.496  26.722 -19.4170  0.00  0.00     0.000 C
ATOM      6  O5  Z9H D   1      25.582  27.207 -20.2460  0.00  0.00     0.000 O
ATOM      7   O  Z9H D   1      24.097  30.426 -18.0460  0.00  0.00     0.000 O
ATOM      8   C  Z9H D   1      24.600  31.092 -16.8760  0.00  0.00     0.000 C
ATOM      9   O  Z9H D   1      23.363  27.737 -17.5280  0.00  0.00     0.000 O
ATOM     10   C  Z9H D   1      22.028  28.213 -17.3320  0.00  0.00     0.000 C
ENDROOT
BRANCH 2 11
ATOM     11   O  Z9H D   1      26.885  30.420 -19.0840  0.00  0.00     0.000 O
ATOM     12   O  Z9H D   1      27.798  31.872 -19.8690  0.00  0.00     0.000 OA
ATOM     13   S  Z9H D   1      26.680  31.206 -20.4490  0.00  0.00     0.000 S
ATOM     14   O  Z9H D   1      25.454  31.947 -20.3630  0.00  0.00     0.000 OA
ATOM     15   O  Z9H D   1      27.098  30.419 -21.5860  0.00  0.00     0.000 O
ENDBRANCH 2 11
BRANCH 5 16
ATOM     16   C  Z9H D   1      23.318  25.705 -20.0320  0.00  0.00     0.000 C
ATOM     17   S  Z9H D   1      21.768  25.591 -21.3080  0.00  0.00     0.000 S
ATOM     18   O  Z9H D   1      23.235  26.266 -21.3210  0.00  0.00     0.000 O
ATOM     19   O  Z9H D   1      20.842  26.181 -20.3850  0.00  0.00     0.000 O
ATOM     20   O  Z9H D   1      21.872  24.190 -21.5200  0.00  0.00     0.000 OA
ATOM     21   O  Z9H D   1      21.723  26.226 -22.5920  0.00  0.00     0.000 OA
ENDBRANCH 5 16
BRANCH 1 22
ATOM     22  O4  GU1 D   2      27.278  27.814 -18.8960  0.00  0.00     0.000 O
BRANCH 22 26
ATOM     23  C1  GU1 D   2      30.745  25.772 -18.0150  0.00  0.00     0.000 C
ATOM     24  C2  GU1 D   2      30.845  26.720 -19.2000  0.00  0.00     0.000 C
ATOM     25  C3  GU1 D   2      29.678  27.664 -19.1810  0.00  0.00     0.000 C
ATOM     26  C4  GU1 D   2      28.363  26.902 -19.1020  0.00  0.00     0.000 C
ATOM     27  C5  GU1 D   2      28.406  25.903 -17.9420  0.00  0.00     0.000 C
ATOM     28  O5  GU1 D   2      29.529  25.036 -18.0710  0.00  0.00     0.000 O
ATOM     29   O  GU1 D   2      32.041  27.491 -19.1650  0.00  0.00     0.000 O
ATOM     30   C  GU1 D   2      33.090  26.959 -19.9610  0.00  0.00     0.000 C
ATOM     31   C  GU1 D   2      30.189  29.755 -20.2580  0.00  0.00     0.000 C
ATOM     32   O  GU1 D   2      29.693  28.425 -20.3930  0.00  0.00     0.000 O
BRANCH 27 33
ATOM     33   C  GU1 D   2      27.162  25.047 -17.9120  0.00  0.00     0.000 C
ATOM     34   O  GU1 D   2      27.000  24.232 -18.7960  0.00  0.00     0.000 OA
ATOM     35   O  GU1 D   2      26.343  25.173 -17.0140  0.00  0.00     0.000 O
ENDBRANCH 27 33
BRANCH 23 36
ATOM     36  O4  GU6 D   3      31.604  24.617 -17.9410  0.00  0.00     0.000 O
BRANCH 36 40
ATOM     37  C1  GU6 D   3      35.026  22.402 -17.6590  0.00  0.00     0.000 C
ATOM     38  C2  GU6 D   3      33.748  21.573 -17.6280  0.00  0.00     0.000 C
ATOM     39  C3  GU6 D   3      32.575  22.438 -18.0080  0.00  0.00     0.000 C
ATOM     40  C4  GU6 D   3      32.801  23.884 -18.1110  0.00  0.00     0.000 C
ATOM     41  C5  GU6 D   3      33.786  24.341 -16.9850  0.00  0.00     0.000 C
ATOM     42  O5  GU6 D   3      34.894  23.470 -16.7340  0.00  0.00     0.000 O
BRANCH 38 43
ATOM     43   O  GU6 D   3      33.846  20.475 -18.5150  0.00  0.00     0.000 O
ATOM     44   S  GU6 D   3      33.673  19.114 -17.8530  0.00  0.00     0.000 S
ATOM     45   O  GU6 D   3      34.955  18.725 -17.2410  0.00  0.00     0.000 OA
ATOM     46   O  GU6 D   3      32.644  19.228 -16.8030  0.00  0.00     0.000 O
ATOM     47   O  GU6 D   3      33.251  18.149 -18.8640  0.00  0.00     0.000 OA
ENDBRANCH 38 43
BRANCH 39 48
ATOM     48   O  GU6 D   3      31.369  21.864 -18.4750  0.00  0.00     0.000 O
ATOM     49   S  GU6 D   3      30.856  21.686 -19.9030  0.00  0.00     0.000 S
ATOM     50   O  GU6 D   3      31.841  20.954 -20.7070  0.00  0.00     0.000 OA
ATOM     51   O  GU6 D   3      29.629  20.898 -19.7200  0.00  0.00     0.000 OA
ATOM     52   O  GU6 D   3      30.610  23.020 -20.4940  0.00  0.00     0.000 O
ENDBRANCH 39 48
BRANCH 41 53
ATOM     53   C  GU6 D   3      33.741  25.581 -16.1330  0.00  0.00     0.000 C
ATOM     54   O  GU6 D   3      34.596  25.141 -15.1100  0.00  0.00     0.000 O
ATOM     55   S  GU6 D   3      34.831  26.007 -13.8650  0.00  0.00     0.000 S
ATOM     56   O  GU6 D   3      33.540  26.073 -13.1410  0.00  0.00     0.000 O
ATOM     57   O  GU6 D   3      35.860  25.364 -13.0350  0.00  0.00     0.000 OA
ATOM     58   O  GU6 D   3      35.248  27.347 -14.3350  0.00  0.00     0.000 OA
ENDBRANCH 41 53
BRANCH 37 59
ATOM     59  O4  Z9K D   4      35.637  22.939 -18.8510  0.00  0.00     0.000 O
BRANCH 59 63
ATOM     60  C1  Z9K D   4      36.133  20.055 -21.4750  0.00  0.00     0.000 C
ATOM     61  C2  Z9K D   4      37.364  19.837 -20.5520  0.00  0.00     0.000 C
ATOM     62  C3  Z9K D   4      37.060  20.883 -19.3930  0.00  0.00     0.000 C
ATOM     63  C4  Z9K D   4      36.590  22.338 -19.7750  0.00  0.00     0.000 C
ATOM     64  C5  Z9K D   4      35.874  22.482 -21.1260  0.00  0.00     0.000 C
ATOM     65  O5  Z9K D   4      35.190  21.209 -21.2660  0.00  0.00     0.000 O
ATOM     66   O  Z9K D   4      38.169  21.076 -18.4960  0.00  0.00     0.000 O
ATOM     67   C  Z9K D   4      38.239  20.133 -17.4390  0.00  0.00     0.000 C
BRANCH 61 68
ATOM     68   O  Z9K D   4      37.228  18.565 -19.9790  0.00  0.00     0.000 O
ATOM     69   O  Z9K D   4      39.690  19.152 -20.3590  0.00  0.00     0.000 OA
ATOM     70   S  Z9K D   4      38.580  18.396 -20.8560  0.00  0.00     0.000 S
ATOM     71   O  Z9K D   4      38.226  18.237 -22.2330  0.00  0.00     0.000 OA
ATOM     72   O  Z9K D   4      38.485  17.136 -20.1920  0.00  0.00     0.000 OA
ENDBRANCH 61 68
BRANCH 64 73
ATOM     73   C  Z9K D   4      35.040  23.780 -21.1700  0.00  0.00     0.000 C
ATOM     74   O  Z9K D   4      35.591  24.916 -21.0960  0.00  0.00     0.000 O
ATOM     75   O  Z9K D   4      33.790  23.760 -21.2860  0.00  0.00     0.000 OA
ENDBRANCH 64 73
BRANCH 60 76
ATOM     76  O4  Z9L D   5      36.094  20.134 -22.9100  0.00  0.00     0.000 O
BRANCH 76 80
ATOM     77  C1  Z9L D   5      33.868  19.706 -26.2010  0.00  0.00     0.000 C
ATOM     78  C2  Z9L D   5      34.079  21.280 -25.9780  0.00  0.00     0.000 C
ATOM     79  C3  Z9L D   5      35.367  21.449 -24.8950  0.00  0.00     0.000 C
ATOM     80  C4  Z9L D   5      35.019  20.265 -23.8030  0.00  0.00     0.000 C
ATOM     81  C5  Z9L D   5      34.577  18.729 -24.0190  0.00  0.00     0.000 C
ATOM     82  O5  Z9L D   5      33.642  18.726 -25.1080  0.00  0.00     0.000 O
ATOM     83   C  Z9L D   5      34.864  17.816 -27.3530  0.00  0.00     0.000 C
ATOM     84   C  Z9L D   5      34.864  17.816 -27.3530  0.00  0.00     0.000 C
BRANCH 78 85
ATOM     85   O  Z9L D   5      34.434  21.845 -27.2000  0.00  0.00     0.000 O
ATOM     86   O  Z9L D   5      33.392  23.152 -28.1590  0.00  0.00     0.000 OA
ATOM     87   S  Z9L D   5      33.095  22.662 -26.8470  0.00  0.00     0.000 S
ATOM     88   O  Z9L D   5      33.314  23.786 -25.9700  0.00  0.00     0.000 OA
ATOM     89   O  Z9L D   5      31.868  21.955 -26.9800  0.00  0.00     0.000 OA
ENDBRANCH 78 85
BRANCH 79 90
ATOM     90   O  Z9L D   5      35.241  22.608 -24.1340  0.00  0.00     0.000 O
ATOM     91   S  Z9L D   5      36.662  22.879 -24.8020  0.00  0.00     0.000 S
ATOM     92   O  Z9L D   5      36.855  22.877 -26.2280  0.00  0.00     0.000 OA
ATOM     93   O  Z9L D   5      37.702  22.428 -23.9110  0.00  0.00     0.000 O
ATOM     94   O  Z9L D   5      36.331  24.215 -24.4220  0.00  0.00     0.000 OA
ENDBRANCH 79 90
BRANCH 81 95
ATOM     95   C  Z9L D   5      34.211  17.834 -22.6480  0.00  0.00     0.000 C
ATOM     96   S  Z9L D   5      34.226  16.012 -21.8430  0.00  0.00     0.000 S
ATOM     97   O  Z9L D   5      33.962  16.606 -23.2780  0.00  0.00     0.000 O
ATOM     98   O  Z9L D   5      33.081  16.351 -21.0370  0.00  0.00     0.000 OA
ATOM     99   O  Z9L D   5      35.552  16.161 -21.3460  0.00  0.00     0.000 OA
ATOM    100   O  Z9L D   5      33.945  14.782 -22.5410  0.00  0.00     0.000 O
ENDBRANCH 81 95
ENDBRANCH 76 80
ENDBRANCH 60 76
ENDBRANCH 59 63
ENDBRANCH 37 59
ENDBRANCH 36 40
ENDBRANCH 23 36
ENDBRANCH 22 26
ENDBRANCH 1 22
TORSDOF 19
ENDMDL
MODEL 2
REMARK VINA RESULT:      -7.4     30.867     35.933
ROOT
ATOM      1  C1  Z9H D   1       4.021  47.515 -11.4780  0.00  0.00     0.000 C
ATOM      2  C2  Z9H D   1       3.934  47.101  -9.9890  0.00  0.00     0.000 C
ATOM      3  C3  Z9H D   1       2.413  47.368  -9.7730  0.00  0.00     0.000 C
ATOM      4  C4  Z9H D   1       1.898  48.790 -10.2490  0.00  0.00     0.000 C
ATOM      5  C5  Z9H D   1       2.257  49.411 -11.6580  0.00  0.00     0.000 C
ATOM      6  O5  Z9H D   1       3.560  48.826 -11.9060  0.00  0.00     0.000 O
ATOM      7   O  Z9H D   1       2.023  47.126  -8.4200  0.00  0.00     0.000 O
ATOM      8   C  Z9H D   1       1.419  45.846  -8.1720  0.00  0.00     0.000 C
ATOM      9   O  Z9H D   1       0.470  48.735 -10.1620  0.00  0.00     0.000 O
ATOM     10   C  Z9H D   1      -0.100  49.329  -8.9920  0.00  0.00     0.000 C
ENDROOT
BRANCH 2 11
ATOM     11   O  Z9H D   1       4.053  45.705 -10.0670  0.00  0.00     0.000 O
ATOM     12   O  Z9H D   1       5.488  44.722  -9.3390  0.00  0.00     0.000 OA
ATOM     13   S  Z9H D   1       5.331  46.133  -9.2260  0.00  0.00     0.000 S
ATOM     14   O  Z9H D   1       4.894  46.566  -7.9300  0.00  0.00     0.000 OA
ATOM     15   O  Z9H D   1       6.305  46.815 -10.0470  0.00  0.00     0.000 O
ENDBRANCH 2 11
BRANCH 5 16
ATOM     16   C  Z9H D   1       2.002  51.060 -11.7900  0.00  0.00     0.000 C
ATOM     17   S  Z9H D   1       2.900  52.824 -12.1390  0.00  0.00     0.000 S
ATOM     18   O  Z9H D   1       2.999  51.331 -12.7460  0.00  0.00     0.000 O
ATOM     19   O  Z9H D   1       3.371  52.959 -10.7910  0.00  0.00     0.000 O
ATOM     20   O  Z9H D   1       1.733  53.475 -12.6260  0.00  0.00     0.000 OA
ATOM     21   O  Z9H D   1       3.946  53.030 -13.0970  0.00  0.00     0.000 OA
ENDBRANCH 5 16
BRANCH 1 22
ATOM     22  O4  GU1 D   2       3.269  46.651 -12.4050  0.00  0.00     0.000 O
BRANCH 22 26
ATOM     23  C1  GU1 D   2       3.270  45.017 -16.1870  0.00  0.00     0.000 C
ATOM     24  C2  GU1 D   2       4.650  45.264 -15.5970  0.00  0.00     0.000 C
ATOM     25  C3  GU1 D   2       4.526  45.487 -14.1170  0.00  0.00     0.000 C
ATOM     26  C4  GU1 D   2       3.513  46.582 -13.8150  0.00  0.00     0.000 C
ATOM     27  C5  GU1 D   2       2.195  46.291 -14.5390  0.00  0.00     0.000 C
ATOM     28  O5  GU1 D   2       2.418  46.128 -15.9370  0.00  0.00     0.000 O
ATOM     29   O  GU1 D   2       5.525  44.163 -15.8090  0.00  0.00     0.000 O
ATOM     30   C  GU1 D   2       6.375  44.312 -16.9370  0.00  0.00     0.000 C
ATOM     31   C  GU1 D   2       6.531  44.871 -12.9380  0.00  0.00     0.000 C
ATOM     32   O  GU1 D   2       5.802  45.893 -13.6130  0.00  0.00     0.000 O
BRANCH 27 33
ATOM     33   C  GU1 D   2       1.210  47.420 -14.3550  0.00  0.00     0.000 C
ATOM     34   O  GU1 D   2       1.418  48.468 -14.9330  0.00  0.00     0.000 OA
ATOM     35   O  GU1 D   2       0.226  47.278 -13.6450  0.00  0.00     0.000 O
ENDBRANCH 27 33
BRANCH 23 36
ATOM     36  O4  GU6 D   3       3.086  45.019 -17.6160  0.00  0.00     0.000 O
BRANCH 36 40
ATOM     37  C1  GU6 D   3       1.673  43.095 -20.9320  0.00  0.00     0.000 C
ATOM     38  C2  GU6 D   3       0.971  44.414 -20.6360  0.00  0.00     0.000 C
ATOM     39  C3  GU6 D   3       1.733  45.165 -19.5760  0.00  0.00     0.000 C
ATOM     40  C4  GU6 D   3       2.816  44.457 -18.8840  0.00  0.00     0.000 C
ATOM     41  C5  GU6 D   3       2.399  42.967 -18.6500  0.00  0.00     0.000 C
ATOM     42  O5  GU6 D   3       1.721  42.330 -19.7380  0.00  0.00     0.000 O
BRANCH 38 43
ATOM     43   O  GU6 D   3       0.873  45.200 -21.8090  0.00  0.00     0.000 O
ATOM     44   S  GU6 D   3      -0.545  45.359 -22.3420  0.00  0.00     0.000 S
ATOM     45   O  GU6 D   3      -0.888  44.160 -23.1260  0.00  0.00     0.000 OA
ATOM     46   O  GU6 D   3      -1.468  45.478 -21.1990  0.00  0.00     0.000 O
ATOM     47   O  GU6 D   3      -0.606  46.565 -23.1620  0.00  0.00     0.000 OA
ENDBRANCH 38 43
BRANCH 39 48
ATOM     48   O  GU6 D   3       1.572  46.562 -19.4170  0.00  0.00     0.000 O
ATOM     49   S  GU6 D   3       2.484  47.710 -19.8460  0.00  0.00     0.000 S
ATOM     50   O  GU6 D   3       2.762  47.625 -21.2840  0.00  0.00     0.000 OA
ATOM     51   O  GU6 D   3       1.689  48.904 -19.5290  0.00  0.00     0.000 OA
ATOM     52   O  GU6 D   3       3.748  47.630 -19.0800  0.00  0.00     0.000 O
ENDBRANCH 39 48
BRANCH 41 53
ATOM     53   C  GU6 D   3       2.625  42.099 -17.4410  0.00  0.00     0.000 C
ATOM     54   O  GU6 D   3       1.350  42.234 -16.8690  0.00  0.00     0.000 O
ATOM     55   S  GU6 D   3       1.043  41.617 -15.4980  0.00  0.00     0.000 S
ATOM     56   O  GU6 D   3       1.873  42.341 -14.5070  0.00  0.00     0.000 O
ATOM     57   O  GU6 D   3      -0.387  41.800 -15.2110  0.00  0.00     0.000 OA
ATOM     58   O  GU6 D   3       1.422  40.187 -15.5660  0.00  0.00     0.000 OA
ENDBRANCH 41 53
BRANCH 37 59
ATOM     59  O4  Z9K D   4       2.959  42.967 -21.5760  0.00  0.00     0.000 O
BRANCH 59 63
ATOM     60  C1  Z9K D   4       3.966  41.020 -24.8380  0.00  0.00     0.000 C
ATOM     61  C2  Z9K D   4       3.289  39.892 -24.0120  0.00  0.00     0.000 C
ATOM     62  C3  Z9K D   4       2.722  40.721 -22.7790  0.00  0.00     0.000 C
ATOM     63  C4  Z9K D   4       3.649  41.785 -22.0770  0.00  0.00     0.000 C
ATOM     64  C5  Z9K D   4       4.755  42.397 -22.9510  0.00  0.00     0.000 C
ATOM     65  O5  Z9K D   4       4.156  42.401 -24.2730  0.00  0.00     0.000 O
ATOM     66   O  Z9K D   4       2.239  39.890 -21.7080  0.00  0.00     0.000 O
ATOM     67   C  Z9K D   4       0.896  39.460 -21.8610  0.00  0.00     0.000 C
BRANCH 61 68
ATOM     68   O  Z9K D   4       2.174  39.460 -24.7420  0.00  0.00     0.000 O
ATOM     69   O  Z9K D   4       3.148  37.562 -23.3280  0.00  0.00     0.000 OA
ATOM     70   S  Z9K D   4       3.059  38.107 -24.6500  0.00  0.00     0.000 S
ATOM     71   O  Z9K D   4       4.130  38.185 -25.5960  0.00  0.00     0.000 OA
ATOM     72   O  Z9K D   4       1.876  37.656 -25.3080  0.00  0.00     0.000 OA
ENDBRANCH 61 68
BRANCH 64 73
ATOM     73   C  Z9K D   4       5.250  43.732 -22.3560  0.00  0.00     0.000 C
ATOM     74   O  Z9K D   4       5.925  43.763 -21.2860  0.00  0.00     0.000 O
ATOM     75   O  Z9K D   4       5.008  44.833 -22.9090  0.00  0.00     0.000 OA
ENDBRANCH 64 73
BRANCH 60 76
ATOM     76  O4  Z9L D   5       5.237  40.997 -25.5100  0.00  0.00     0.000 O
BRANCH 76 80
ATOM     77  C1  Z9L D   5       7.144  41.657 -28.9600  0.00  0.00     0.000 C
ATOM     78  C2  Z9L D   5       7.624  42.791 -27.9330  0.00  0.00     0.000 C
ATOM     79  C3  Z9L D   5       7.196  42.259 -26.3860  0.00  0.00     0.000 C
ATOM     80  C4  Z9L D   5       5.688  41.656 -26.6650  0.00  0.00     0.000 C
ATOM     81  C5  Z9L D   5       5.138  40.692 -27.8350  0.00  0.00     0.000 C
ATOM     82  O5  Z9L D   5       5.754  41.141 -29.0510  0.00  0.00     0.000 O
ATOM     83   C  Z9L D   5       7.754  39.439 -29.7370  0.00  0.00     0.000 C
ATOM     84   C  Z9L D   5       7.754  39.439 -29.7370  0.00  0.00     0.000 C
BRANCH 78 85
ATOM     85   O  Z9L D   5       9.010  42.889 -28.0150  0.00  0.00     0.000 O
ATOM     86   O  Z9L D   5       9.973  44.385 -28.7530  0.00  0.00     0.000 OA
ATOM     87   S  Z9L D   5       8.557  44.334 -28.5520  0.00  0.00     0.000 S
ATOM     88   O  Z9L D   5       8.293  45.287 -27.5030  0.00  0.00     0.000 OA
ATOM     89   O  Z9L D   5       7.992  44.376 -29.8570  0.00  0.00     0.000 OA
ENDBRANCH 78 85
BRANCH 79 90
ATOM     90   O  Z9L D   5       6.941  43.330 -25.5340  0.00  0.00     0.000 O
ATOM     91   S  Z9L D   5       8.171  42.667 -24.7690  0.00  0.00     0.000 S
ATOM     92   O  Z9L D   5       9.441  42.438 -25.4060  0.00  0.00     0.000 OA
ATOM     93   O  Z9L D   5       7.675  41.767 -23.7580  0.00  0.00     0.000 O
ATOM     94   O  Z9L D   5       8.218  43.969 -24.1870  0.00  0.00     0.000 OA
ENDBRANCH 79 90
BRANCH 81 95
ATOM     95   C  Z9L D   5       3.494  40.359 -27.8470  0.00  0.00     0.000 C
ATOM     96   S  Z9L D   5       1.887  40.145 -29.0040  0.00  0.00     0.000 S
ATOM     97   O  Z9L D   5       3.159  41.073 -29.0070  0.00  0.00     0.000 O
ATOM     98   O  Z9L D   5       1.044  40.600 -27.9290  0.00  0.00     0.000 OA
ATOM     99   O  Z9L D   5       2.132  38.758 -29.2170  0.00  0.00     0.000 OA
ATOM    100   O  Z9L D   5       1.587  40.923 -30.1800  0.00  0.00     0.000 O
ENDBRANCH 81 95
ENDBRANCH 76 80
ENDBRANCH 60 76
ENDBRANCH 59 63
ENDBRANCH 37 59
ENDBRANCH 36 40
ENDBRANCH 23 36
ENDBRANCH 22 26
ENDBRANCH 1 22
TORSDOF 19
ENDMDL
MODEL 3
REMARK VINA RESULT:      -7.2     35.714     42.555
ROOT
ATOM      1  C1  Z9H D   1      19.473   9.187 -54.6060  0.00  0.00     0.000 C
ATOM      2  C2  Z9H D   1      20.342   9.249 -55.8850  0.00  0.00     0.000 C
ATOM      3  C3  Z9H D   1      21.267   8.029 -55.5840  0.00  0.00     0.000 C
ATOM      4  C4  Z9H D   1      21.939   8.025 -54.1490  0.00  0.00     0.000 C
ATOM      5  C5  Z9H D   1      21.135   8.304 -52.8170  0.00  0.00     0.000 C
ATOM      6  O5  Z9H D   1      20.096   9.197 -53.2910  0.00  0.00     0.000 O
ATOM      7   O  Z9H D   1      22.259   7.858 -56.5980  0.00  0.00     0.000 O
ATOM      8   C  Z9H D   1      21.957   6.867 -57.5940  0.00  0.00     0.000 C
ATOM      9   O  Z9H D   1      22.551   6.738 -54.0100  0.00  0.00     0.000 O
ATOM     10   C  Z9H D   1      23.958   6.693 -54.2650  0.00  0.00     0.000 C
ENDROOT
BRANCH 2 11
ATOM     11   O  Z9H D   1      19.448   8.796 -56.8670  0.00  0.00     0.000 O
ATOM     12   O  Z9H D   1      18.823   9.852 -58.2990  0.00  0.00     0.000 OA
ATOM     13   S  Z9H D   1      19.766  10.284 -57.3230  0.00  0.00     0.000 S
ATOM     14   O  Z9H D   1      21.118  10.329 -57.8040  0.00  0.00     0.000 OA
ATOM     15   O  Z9H D   1      19.166  11.254 -56.4370  0.00  0.00     0.000 O
ENDBRANCH 2 11
BRANCH 5 16
ATOM     16   C  Z9H D   1      22.076   8.692 -51.4890  0.00  0.00     0.000 C
ATOM     17   S  Z9H D   1      22.554  10.160 -50.2020  0.00  0.00     0.000 S
ATOM     18   O  Z9H D   1      21.200   9.620 -50.8960  0.00  0.00     0.000 O
ATOM     19   O  Z9H D   1      23.489  10.774 -51.1010  0.00  0.00     0.000 O
ATOM     20   O  Z9H D   1      22.943   9.293 -49.1450  0.00  0.00     0.000 OA
ATOM     21   O  Z9H D   1      21.622  11.110 -49.6680  0.00  0.00     0.000 OA
ENDBRANCH 5 16
BRANCH 1 22
ATOM     22  O4  GU1 D   2      18.625   7.988 -54.4910  0.00  0.00     0.000 O
BRANCH 22 26
ATOM     23  C1  GU1 D   2      14.879   6.723 -53.3320  0.00  0.00     0.000 C
ATOM     24  C2  GU1 D   2      14.976   8.201 -53.6800  0.00  0.00     0.000 C
ATOM     25  C3  GU1 D   2      16.248   8.451 -54.4370  0.00  0.00     0.000 C
ATOM     26  C4  GU1 D   2      17.450   7.910 -53.6750  0.00  0.00     0.000 C
ATOM     27  C5  GU1 D   2      17.207   6.449 -53.2830  0.00  0.00     0.000 C
ATOM     28  O5  GU1 D   2      15.995   6.327 -52.5430  0.00  0.00     0.000 O
ATOM     29   O  GU1 D   2      13.887   8.630 -54.4880  0.00  0.00     0.000 O
ATOM     30   C  GU1 D   2      12.833   9.239 -53.7560  0.00  0.00     0.000 C
ATOM     31   C  GU1 D   2      16.075  10.360 -55.8920  0.00  0.00     0.000 C
ATOM     32   O  GU1 D   2      16.408   9.864 -54.5980  0.00  0.00     0.000 O
BRANCH 27 33
ATOM     33   C  GU1 D   2      18.330   5.921 -52.4220  0.00  0.00     0.000 C
ATOM     34   O  GU1 D   2      18.286   6.126 -51.2260  0.00  0.00     0.000 OA
ATOM     35   O  GU1 D   2      19.256   5.300 -52.9210  0.00  0.00     0.000 O
ENDBRANCH 27 33
BRANCH 23 36
ATOM     36  O4  GU6 D   3      13.880   6.266 -52.3990  0.00  0.00     0.000 O
BRANCH 36 40
ATOM     37  C1  GU6 D   3      10.783   3.774 -51.4550  0.00  0.00     0.000 C
ATOM     38  C2  GU6 D   3      11.891   3.807 -50.4090  0.00  0.00     0.000 C
ATOM     39  C3  GU6 D   3      12.836   4.940 -50.7120  0.00  0.00     0.000 C
ATOM     40  C4  GU6 D   3      12.683   5.631 -51.9970  0.00  0.00     0.000 C
ATOM     41  C5  GU6 D   3      12.316   4.592 -53.1080  0.00  0.00     0.000 C
ATOM     42  O5  GU6 D   3      11.372   3.583 -52.7320  0.00  0.00     0.000 O
BRANCH 38 43
ATOM     43   O  GU6 D   3      11.348   3.965 -49.1130  0.00  0.00     0.000 O
ATOM     44   S  GU6 D   3      11.119   2.659 -48.3630  0.00  0.00     0.000 S
ATOM     45   O  GU6 D   3       9.846   2.074 -48.8190  0.00  0.00     0.000 OA
ATOM     46   O  GU6 D   3      12.223   1.735 -48.6810  0.00  0.00     0.000 O
ATOM     47   O  GU6 D   3      11.095   2.936 -46.9310  0.00  0.00     0.000 OA
ENDBRANCH 38 43
BRANCH 39 48
ATOM     48   O  GU6 D   3      13.681   5.470 -49.7080  0.00  0.00     0.000 O
ATOM     49   S  GU6 D   3      14.910   4.858 -49.0370  0.00  0.00     0.000 S
ATOM     50   O  GU6 D   3      15.896   4.466 -50.0510  0.00  0.00     0.000 OA
ATOM     51   O  GU6 D   3      15.415   5.956 -48.2020  0.00  0.00     0.000 OA
ATOM     52   O  GU6 D   3      14.491   3.674 -48.2540  0.00  0.00     0.000 O
ENDBRANCH 39 48
BRANCH 41 53
ATOM     53   C  GU6 D   3      12.805   4.512 -54.5290  0.00  0.00     0.000 C
ATOM     54   O  GU6 D   3      11.574   4.727 -55.1670  0.00  0.00     0.000 O
ATOM     55   S  GU6 D   3      11.462   4.635 -56.6950  0.00  0.00     0.000 S
ATOM     56   O  GU6 D   3      11.722   3.222 -57.0580  0.00  0.00     0.000 O
ATOM     57   O  GU6 D   3      10.103   5.031 -57.0910  0.00  0.00     0.000 OA
ATOM     58   O  GU6 D   3      12.495   5.529 -57.2650  0.00  0.00     0.000 OA
ENDBRANCH 41 53
BRANCH 37 59
ATOM     59  O4  Z9K D   4       9.752   4.773 -51.6010  0.00  0.00     0.000 O
BRANCH 59 63
ATOM     60  C1  Z9K D   4       6.201   4.869 -49.9200  0.00  0.00     0.000 C
ATOM     61  C2  Z9K D   4       6.155   3.493 -50.6420  0.00  0.00     0.000 C
ATOM     62  C3  Z9K D   4       7.653   3.377 -51.1640  0.00  0.00     0.000 C
ATOM     63  C4  Z9K D   4       8.324   4.625 -51.8540  0.00  0.00     0.000 C
ATOM     64  C5  Z9K D   4       7.774   6.000 -51.4460  0.00  0.00     0.000 C
ATOM     65  O5  Z9K D   4       7.380   5.791 -50.0640  0.00  0.00     0.000 O
ATOM     66   O  Z9K D   4       7.850   2.292 -52.0880  0.00  0.00     0.000 O
ATOM     67   C  Z9K D   4       8.112   1.040 -51.4760  0.00  0.00     0.000 C
BRANCH 61 68
ATOM     68   O  Z9K D   4       6.006   2.514 -49.6510  0.00  0.00     0.000 O
ATOM     69   O  Z9K D   4       4.805   1.839 -51.8080  0.00  0.00     0.000 OA
ATOM     70   S  Z9K D   4       4.627   2.359 -50.4850  0.00  0.00     0.000 S
ATOM     71   O  Z9K D   4       3.737   3.416 -50.1160  0.00  0.00     0.000 OA
ATOM     72   O  Z9K D   4       4.530   1.301 -49.5320  0.00  0.00     0.000 OA
ENDBRANCH 61 68
BRANCH 64 73
ATOM     73   C  Z9K D   4       8.790   7.116 -51.7670  0.00  0.00     0.000 C
ATOM     74   O  Z9K D   4       9.192   7.915 -50.8720  0.00  0.00     0.000 O
ATOM     75   O  Z9K D   4       9.261   7.269 -52.9210  0.00  0.00     0.000 OA
ENDBRANCH 64 73
BRANCH 60 76
ATOM     76  O4  Z9L D   5       5.226   5.925 -49.9470  0.00  0.00     0.000 O
BRANCH 76 80
ATOM     77  C1  Z9L D   5       3.418   8.173 -47.1810  0.00  0.00     0.000 C
ATOM     78  C2  Z9L D   5       3.622   9.096 -48.4770  0.00  0.00     0.000 C
ATOM     79  C3  Z9L D   5       3.948   8.055 -49.7690  0.00  0.00     0.000 C
ATOM     80  C4  Z9L D   5       4.983   6.986 -49.0590  0.00  0.00     0.000 C
ATOM     81  C5  Z9L D   5       4.900   6.221 -47.6420  0.00  0.00     0.000 C
ATOM     82  O5  Z9L D   5       4.409   7.180 -46.6940  0.00  0.00     0.000 O
ATOM     83   C  Z9L D   5       1.793   6.680 -46.1690  0.00  0.00     0.000 C
ATOM     84   C  Z9L D   5       1.793   6.680 -46.1690  0.00  0.00     0.000 C
BRANCH 78 85
ATOM     85   O  Z9L D   5       2.427   9.767 -48.7220  0.00  0.00     0.000 O
ATOM     86   O  Z9L D   5       2.191  11.676 -48.6350  0.00  0.00     0.000 OA
ATOM     87   S  Z9L D   5       3.443  10.993 -48.5070  0.00  0.00     0.000 S
ATOM     88   O  Z9L D   5       4.185  11.348 -49.6920  0.00  0.00     0.000 OA
ATOM     89   O  Z9L D   5       3.868  11.237 -47.1720  0.00  0.00     0.000 OA
ENDBRANCH 78 85
BRANCH 79 90
ATOM     90   O  Z9L D   5       4.755   8.668 -50.7230  0.00  0.00     0.000 O
ATOM     91   S  Z9L D   5       3.479   8.345 -51.6200  0.00  0.00     0.000 S
ATOM     92   O  Z9L D   5       2.159   8.803 -51.2760  0.00  0.00     0.000 OA
ATOM     93   O  Z9L D   5       3.674   7.083 -52.2900  0.00  0.00     0.000 O
ATOM     94   O  Z9L D   5       4.078   9.352 -52.4340  0.00  0.00     0.000 OA
ENDBRANCH 79 90
BRANCH 81 95
ATOM     95   C  Z9L D   5       6.206   5.264 -47.2070  0.00  0.00     0.000 C
ATOM     96   S  Z9L D   5       7.327   4.635 -45.6850  0.00  0.00     0.000 S
ATOM     97   O  Z9L D   5       6.603   5.980 -46.0690  0.00  0.00     0.000 O
ATOM     98   O  Z9L D   5       8.462   4.511 -46.5630  0.00  0.00     0.000 OA
ATOM     99   O  Z9L D   5       6.473   3.528 -45.4160  0.00  0.00     0.000 OA
ATOM    100   O  Z9L D   5       7.718   5.427 -44.5450  0.00  0.00     0.000 O
ENDBRANCH 81 95
ENDBRANCH 76 80
ENDBRANCH 60 76
ENDBRANCH 59 63
ENDBRANCH 37 59
ENDBRANCH 36 40
ENDBRANCH 23 36
ENDBRANCH 22 26
ENDBRANCH 1 22
TORSDOF 19
ENDMDL
MODEL 4
REMARK VINA RESULT:      -7.2     41.649     46.668
ROOT
ATOM      1  C1  Z9H D   1       1.541  15.980 -50.4780  0.00  0.00     0.000 C
ATOM      2  C2  Z9H D   1       2.006  14.837 -51.4120  0.00  0.00     0.000 C
ATOM      3  C3  Z9H D   1       0.604  14.375 -51.9140  0.00  0.00     0.000 C
ATOM      4  C4  Z9H D   1      -0.470  14.106 -50.7800  0.00  0.00     0.000 C
ATOM      5  C5  Z9H D   1      -0.739  15.111 -49.5900  0.00  0.00     0.000 C
ATOM      6  O5  Z9H D   1       0.565  15.723 -49.4300  0.00  0.00     0.000 O
ATOM      7   O  Z9H D   1       0.702  13.245 -52.7830  0.00  0.00     0.000 O
ATOM      8   C  Z9H D   1       0.658  13.544 -54.1890  0.00  0.00     0.000 C
ATOM      9   O  Z9H D   1      -1.714  13.914 -51.4600  0.00  0.00     0.000 O
ATOM     10   C  Z9H D   1      -2.111  12.552 -51.6470  0.00  0.00     0.000 C
ENDROOT
BRANCH 2 11
ATOM     11   O  Z9H D   1       2.564  15.547 -52.4860  0.00  0.00     0.000 O
ATOM     12   O  Z9H D   1       4.406  15.583 -52.8900  0.00  0.00     0.000 OA
ATOM     13   S  Z9H D   1       3.822  14.829 -51.8330  0.00  0.00     0.000 S
ATOM     14   O  Z9H D   1       3.730  13.423 -52.1050  0.00  0.00     0.000 OA
ATOM     15   O  Z9H D   1       4.162  15.407 -50.5530  0.00  0.00     0.000 O
ENDBRANCH 2 11
BRANCH 5 16
ATOM     16   C  Z9H D   1      -1.562  14.460 -48.2860  0.00  0.00     0.000 C
ATOM     17   S  Z9H D   1      -2.304  12.761 -47.5110  0.00  0.00     0.000 S
ATOM     18   O  Z9H D   1      -0.959  13.188 -48.2940  0.00  0.00     0.000 O
ATOM     19   O  Z9H D   1      -3.503  12.813 -48.2980  0.00  0.00     0.000 O
ATOM     20   O  Z9H D   1      -2.242  13.191 -46.1580  0.00  0.00     0.000 OA
ATOM     21   O  Z9H D   1      -1.664  11.481 -47.5930  0.00  0.00     0.000 OA
ENDBRANCH 5 16
BRANCH 1 22
ATOM     22  O4  GU1 D   2       0.904  17.118 -51.1630  0.00  0.00     0.000 O
BRANCH 22 26
ATOM     23  C1  GU1 D   2       0.333  21.198 -51.1270  0.00  0.00     0.000 C
ATOM     24  C2  GU1 D   2       1.718  20.742 -50.6950  0.00  0.00     0.000 C
ATOM     25  C3  GU1 D   2       1.924  19.314 -51.1100  0.00  0.00     0.000 C
ATOM     26  C4  GU1 D   2       0.791  18.432 -50.6040  0.00  0.00     0.000 C
ATOM     27  C5  GU1 D   2      -0.560  19.034 -51.0030  0.00  0.00     0.000 C
ATOM     28  O5  GU1 D   2      -0.666  20.375 -50.5350  0.00  0.00     0.000 O
ATOM     29   O  GU1 D   2       2.746  21.529 -51.2860  0.00  0.00     0.000 O
ATOM     30   C  GU1 D   2       3.222  22.574 -50.4500  0.00  0.00     0.000 C
ATOM     31   C  GU1 D   2       4.249  18.796 -51.4510  0.00  0.00     0.000 C
ATOM     32   O  GU1 D   2       3.153  18.851 -50.5420  0.00  0.00     0.000 O
BRANCH 27 33
ATOM     33   C  GU1 D   2      -1.705  18.246 -50.4120  0.00  0.00     0.000 C
ATOM     34   O  GU1 D   2      -2.407  17.598 -51.1600  0.00  0.00     0.000 OA
ATOM     35   O  GU1 D   2      -1.912  18.259 -49.2080  0.00  0.00     0.000 O
ENDBRANCH 27 33
BRANCH 23 36
ATOM     36  O4  GU6 D   3      -0.202  22.443 -50.6370  0.00  0.00     0.000 O
BRANCH 36 40
ATOM     37  C1  GU6 D   3      -2.096  25.919 -51.6480  0.00  0.00     0.000 C
ATOM     38  C2  GU6 D   3      -2.966  24.677 -51.7900  0.00  0.00     0.000 C
ATOM     39  C3  GU6 D   3      -2.279  23.502 -51.1440  0.00  0.00     0.000 C
ATOM     40  C4  GU6 D   3      -0.886  23.677 -50.7200  0.00  0.00     0.000 C
ATOM     41  C5  GU6 D   3      -0.127  24.555 -51.7680  0.00  0.00     0.000 C
ATOM     42  O5  GU6 D   3      -0.852  25.676 -52.2870  0.00  0.00     0.000 O
BRANCH 38 43
ATOM     43   O  GU6 D   3      -4.232  24.885 -51.1930  0.00  0.00     0.000 O
ATOM     44   S  GU6 D   3      -5.342  25.231 -52.1760  0.00  0.00     0.000 S
ATOM     45   O  GU6 D   3      -5.261  26.669 -52.4870  0.00  0.00     0.000 OA
ATOM     46   O  GU6 D   3      -5.139  24.450 -53.4100  0.00  0.00     0.000 O
ATOM     47   O  GU6 D   3      -6.627  24.889 -51.5740  0.00  0.00     0.000 OA
ENDBRANCH 38 43
BRANCH 39 48
ATOM     48   O  GU6 D   3      -3.013  22.359 -50.7490  0.00  0.00     0.000 O
ATOM     49   S  GU6 D   3      -3.790  21.352 -51.5950  0.00  0.00     0.000 S
ATOM     50   O  GU6 D   3      -2.918  20.779 -52.6270  0.00  0.00     0.000 OA
ATOM     51   O  GU6 D   3      -4.192  20.333 -50.6160  0.00  0.00     0.000 OA
ATOM     52   O  GU6 D   3      -4.938  22.040 -52.2270  0.00  0.00     0.000 O
ENDBRANCH 39 48
BRANCH 41 53
ATOM     53   C  GU6 D   3       1.272  24.398 -52.3010  0.00  0.00     0.000 C
ATOM     54   O  GU6 D   3       1.329  25.589 -53.0420  0.00  0.00     0.000 O
ATOM     55   S  GU6 D   3       2.548  25.901 -53.9210  0.00  0.00     0.000 S
ATOM     56   O  GU6 D   3       2.561  24.895 -55.0080  0.00  0.00     0.000 O
ATOM     57   O  GU6 D   3       2.396  27.257 -54.4690  0.00  0.00     0.000 OA
ATOM     58   O  GU6 D   3       3.749  25.776 -53.0650  0.00  0.00     0.000 OA
ENDBRANCH 41 53
BRANCH 37 59
ATOM     59  O4  Z9K D   4      -1.815  26.596 -50.4050  0.00  0.00     0.000 O
BRANCH 59 63
ATOM     60  C1  Z9K D   4      -4.762  28.541 -48.6790  0.00  0.00     0.000 C
ATOM     61  C2  Z9K D   4      -4.509  29.427 -49.9300  0.00  0.00     0.000 C
ATOM     62  C3  Z9K D   4      -3.448  28.541 -50.7170  0.00  0.00     0.000 C
ATOM     63  C4  Z9K D   4      -2.242  27.904 -49.9250  0.00  0.00     0.000 C
ATOM     64  C5  Z9K D   4      -2.478  27.646 -48.4300  0.00  0.00     0.000 C
ATOM     65  O5  Z9K D   4      -3.898  27.348 -48.3750  0.00  0.00     0.000 O
ATOM     66   O  Z9K D   4      -2.840  29.231 -51.8240  0.00  0.00     0.000 O
ATOM     67   C  Z9K D   4      -3.582  29.169 -53.0310  0.00  0.00     0.000 C
BRANCH 61 68
ATOM     68   O  Z9K D   4      -5.683  29.405 -50.6940  0.00  0.00     0.000 O
ATOM     69   O  Z9K D   4      -4.478  31.652 -50.9140  0.00  0.00     0.000 OA
ATOM     70   S  Z9K D   4      -5.574  30.970 -50.2930  0.00  0.00     0.000 S
ATOM     71   O  Z9K D   4      -6.002  31.135 -48.9380  0.00  0.00     0.000 OA
ATOM     72   O  Z9K D   4      -6.714  30.952 -51.1520  0.00  0.00     0.000 OA
ENDBRANCH 61 68
BRANCH 64 73
ATOM     73   C  Z9K D   4      -1.480  26.601 -47.8890  0.00  0.00     0.000 C
ATOM     74   O  Z9K D   4      -0.231  26.757 -48.0220  0.00  0.00     0.000 O
ATOM     75   O  Z9K D   4      -1.864  25.565 -47.2940  0.00  0.00     0.000 OA
ENDBRANCH 64 73
BRANCH 60 76
ATOM     76  O4  Z9L D   5      -4.883  28.948 -47.3050  0.00  0.00     0.000 O
BRANCH 76 80
ATOM     77  C1  Z9L D   5      -6.854  28.381 -43.8750  0.00  0.00     0.000 C
ATOM     78  C2  Z9L D   5      -5.360  27.841 -43.6530  0.00  0.00     0.000 C
ATOM     79  C3  Z9L D   5      -4.420  28.485 -44.9030  0.00  0.00     0.000 C
ATOM     80  C4  Z9L D   5      -5.433  28.295 -46.1890  0.00  0.00     0.000 C
ATOM     81  C5  Z9L D   5      -7.003  28.623 -46.3520  0.00  0.00     0.000 C
ATOM     82  O5  Z9L D   5      -7.631  28.211 -45.1290  0.00  0.00     0.000 O
ATOM     83   C  Z9L D   5      -8.187  30.393 -43.6150  0.00  0.00     0.000 C
ATOM     84   C  Z9L D   5      -8.187  30.393 -43.6150  0.00  0.00     0.000 C
BRANCH 78 85
ATOM     85   O  Z9L D   5      -4.899  28.333 -42.4360  0.00  0.00     0.000 O
ATOM     86   O  Z9L D   5      -4.447  27.254 -40.9050  0.00  0.00     0.000 OA
ATOM     87   S  Z9L D   5      -4.801  26.747 -42.1960  0.00  0.00     0.000 S
ATOM     88   O  Z9L D   5      -3.590  26.155 -42.7100  0.00  0.00     0.000 OA
ATOM     89   O  Z9L D   5      -6.031  26.058 -42.0040  0.00  0.00     0.000 OA
ENDBRANCH 78 85
BRANCH 79 90
ATOM     90   O  Z9L D   5      -3.360  27.643 -45.2260  0.00  0.00     0.000 O
ATOM     91   S  Z9L D   5      -2.546  28.939 -44.7870  0.00  0.00     0.000 S
ATOM     92   O  Z9L D   5      -2.714  29.554 -43.4970  0.00  0.00     0.000 OA
ATOM     93   O  Z9L D   5      -2.248  29.733 -45.9530  0.00  0.00     0.000 O
ATOM     94   O  Z9L D   5      -1.508  27.968 -44.6620  0.00  0.00     0.000 OA
ENDBRANCH 79 90
BRANCH 81 95
ATOM     95   C  Z9L D   5      -7.730  28.204 -47.8040  0.00  0.00     0.000 C
ATOM     96   S  Z9L D   5      -8.750  26.786 -48.7620  0.00  0.00     0.000 S
ATOM     97   O  Z9L D   5      -7.591  26.812 -47.6970  0.00  0.00     0.000 O
ATOM     98   O  Z9L D   5      -8.173  27.207 -50.0140  0.00  0.00     0.000 OA
ATOM     99   O  Z9L D   5     -10.008  27.288 -48.3210  0.00  0.00     0.000 OA
ATOM    100   O  Z9L D   5      -8.550  25.365 -48.6230  0.00  0.00     0.000 O
ENDBRANCH 81 95
ENDBRANCH 76 80
ENDBRANCH 60 76
ENDBRANCH 59 63
ENDBRANCH 37 59
ENDBRANCH 36 40
ENDBRANCH 23 36
ENDBRANCH 22 26
ENDBRANCH 1 22
TORSDOF 19
ENDMDL
MODEL 5
REMARK VINA RESULT:      -7.1     29.739     37.338
ROOT
ATOM      1  C1  Z9H D   1       8.102  42.137 -27.6690  0.00  0.00     0.000 C
ATOM      2  C2  Z9H D   1       9.058  42.580 -28.8030  0.00  0.00     0.000 C
ATOM      3  C3  Z9H D   1       7.993  43.185 -29.7680  0.00  0.00     0.000 C
ATOM      4  C4  Z9H D   1       6.749  42.253 -30.0760  0.00  0.00     0.000 C
ATOM      5  C5  Z9H D   1       5.939  41.492 -28.9520  0.00  0.00     0.000 C
ATOM      6  O5  Z9H D   1       6.970  41.271 -27.9570  0.00  0.00     0.000 O
ATOM      7   O  Z9H D   1       8.585  43.642 -30.9850  0.00  0.00     0.000 O
ATOM      8   C  Z9H D   1       8.852  45.053 -31.0480  0.00  0.00     0.000 C
ATOM      9   O  Z9H D   1       5.815  43.074 -30.7870  0.00  0.00     0.000 O
ATOM     10   C  Z9H D   1       5.816  42.921 -32.2090  0.00  0.00     0.000 C
ENDROOT
BRANCH 2 11
ATOM     11   O  Z9H D   1       9.701  43.687 -28.2270  0.00  0.00     0.000 O
ATOM     12   O  Z9H D   1      11.528  43.727 -27.7620  0.00  0.00     0.000 OA
ATOM     13   S  Z9H D   1      10.875  42.629 -28.3890  0.00  0.00     0.000 S
ATOM     14   O  Z9H D   1      11.174  42.497 -29.7870  0.00  0.00     0.000 OA
ATOM     15   O  Z9H D   1      10.734  41.529 -27.4620  0.00  0.00     0.000 O
ENDBRANCH 2 11
BRANCH 5 16
ATOM     16   C  Z9H D   1       4.974  40.239 -29.4990  0.00  0.00     0.000 C
ATOM     17   S  Z9H D   1       4.964  38.536 -30.5670  0.00  0.00     0.000 S
ATOM     18   O  Z9H D   1       5.951  39.227 -29.4930  0.00  0.00     0.000 O
ATOM     19   O  Z9H D   1       4.875  39.215 -31.8280  0.00  0.00     0.000 O
ATOM     20   O  Z9H D   1       3.840  37.970 -29.9060  0.00  0.00     0.000 OA
ATOM     21   O  Z9H D   1       6.015  37.562 -30.5550  0.00  0.00     0.000 OA
ENDBRANCH 5 16
BRANCH 1 22
ATOM     22  O4  GU1 D   2       7.423  43.240 -26.9660  0.00  0.00     0.000 O
BRANCH 22 26
ATOM     23  C1  GU1 D   2       5.731  44.322 -23.3700  0.00  0.00     0.000 C
ATOM     24  C2  GU1 D   2       6.789  43.233 -23.2770  0.00  0.00     0.000 C
ATOM     25  C3  GU1 D   2       7.583  43.202 -24.5500  0.00  0.00     0.000 C
ATOM     26  C4  GU1 D   2       6.668  43.080 -25.7600  0.00  0.00     0.000 C
ATOM     27  C5  GU1 D   2       5.579  44.156 -25.7030  0.00  0.00     0.000 C
ATOM     28  O5  GU1 D   2       4.865  44.078 -24.4720  0.00  0.00     0.000 O
ATOM     29   O  GU1 D   2       7.688  43.455 -22.1970  0.00  0.00     0.000 O
ATOM     30   C  GU1 D   2       7.359  42.736 -21.0170  0.00  0.00     0.000 C
ATOM     31   C  GU1 D   2       9.810  42.354 -24.2070  0.00  0.00     0.000 C
ATOM     32   O  GU1 D   2       8.449  42.063 -24.5150  0.00  0.00     0.000 O
BRANCH 27 33
ATOM     33   C  GU1 D   2       4.584  43.985 -26.8260  0.00  0.00     0.000 C
ATOM     34   O  GU1 D   2       3.729  43.131 -26.7160  0.00  0.00     0.000 OA
ATOM     35   O  GU1 D   2       4.639  44.695 -27.8180  0.00  0.00     0.000 O
ENDBRANCH 27 33
BRANCH 23 36
ATOM     36  O4  GU6 D   3       4.683  44.395 -22.3830  0.00  0.00     0.000 O
BRANCH 36 40
ATOM     37  C1  GU6 D   3       2.344  45.708 -19.3000  0.00  0.00     0.000 C
ATOM     38  C2  GU6 D   3       1.986  44.314 -19.7980  0.00  0.00     0.000 C
ATOM     39  C3  GU6 D   3       3.060  43.819 -20.7310  0.00  0.00     0.000 C
ATOM     40  C4  GU6 D   3       4.083  44.778 -21.1610  0.00  0.00     0.000 C
ATOM     41  C5  GU6 D   3       3.424  46.178 -21.3900  0.00  0.00     0.000 C
ATOM     42  O5  GU6 D   3       2.449  46.575 -20.4190  0.00  0.00     0.000 O
BRANCH 38 43
ATOM     43   O  GU6 D   3       1.840  43.420 -18.7120  0.00  0.00     0.000 O
ATOM     44   S  GU6 D   3       0.412  43.274 -18.2040  0.00  0.00     0.000 S
ATOM     45   O  GU6 D   3       0.117  44.403 -17.3050  0.00  0.00     0.000 OA
ATOM     46   O  GU6 D   3      -0.505  43.315 -19.3570  0.00  0.00     0.000 O
ATOM     47   O  GU6 D   3       0.287  41.996 -17.5100  0.00  0.00     0.000 OA
ENDBRANCH 38 43
BRANCH 39 48
ATOM     48   O  GU6 D   3       3.213  42.437 -20.9950  0.00  0.00     0.000 O
ATOM     49   S  GU6 D   3       2.445  41.531 -21.9560  0.00  0.00     0.000 S
ATOM     50   O  GU6 D   3       2.493  42.081 -23.3160  0.00  0.00     0.000 OA
ATOM     51   O  GU6 D   3       3.176  40.260 -21.8710  0.00  0.00     0.000 OA
ATOM     52   O  GU6 D   3       1.041  41.429 -21.5000  0.00  0.00     0.000 O
ENDBRANCH 39 48
BRANCH 41 53
ATOM     53   C  GU6 D   3       3.683  47.180 -22.4830  0.00  0.00     0.000 C
ATOM     54   O  GU6 D   3       4.225  48.199 -21.6840  0.00  0.00     0.000 O
ATOM     55   S  GU6 D   3       4.578  49.562 -22.2940  0.00  0.00     0.000 S
ATOM     56   O  GU6 D   3       3.303  50.186 -22.7160  0.00  0.00     0.000 O
ATOM     57   O  GU6 D   3       5.241  50.378 -21.2660  0.00  0.00     0.000 OA
ATOM     58   O  GU6 D   3       5.456  49.307 -23.4580  0.00  0.00     0.000 OA
ENDBRANCH 41 53
BRANCH 37 59
ATOM     59  O4  Z9K D   4       3.442  46.015 -18.4150  0.00  0.00     0.000 O
BRANCH 59 63
ATOM     60  C1  Z9K D   4       2.355  48.154 -15.3020  0.00  0.00     0.000 C
ATOM     61  C2  Z9K D   4       2.348  49.229 -16.4230  0.00  0.00     0.000 C
ATOM     62  C3  Z9K D   4       2.607  48.328 -17.7070  0.00  0.00     0.000 C
ATOM     63  C4  Z9K D   4       3.733  47.226 -17.6580  0.00  0.00     0.000 C
ATOM     64  C5  Z9K D   4       4.072  46.670 -16.2670  0.00  0.00     0.000 C
ATOM     65  O5  Z9K D   4       2.800  46.742 -15.5720  0.00  0.00     0.000 O
ATOM     66   O  Z9K D   4       2.891  49.093 -18.8920  0.00  0.00     0.000 O
ATOM     67   C  Z9K D   4       1.740  49.528 -19.5980  0.00  0.00     0.000 C
BRANCH 61 68
ATOM     68   O  Z9K D   4       1.033  49.701 -16.5320  0.00  0.00     0.000 O
ATOM     69   O  Z9K D   4       2.726  51.548 -17.0520  0.00  0.00     0.000 OA
ATOM     70   S  Z9K D   4       1.829  51.032 -16.0630  0.00  0.00     0.000 S
ATOM     71   O  Z9K D   4       2.092  50.947 -14.6590  0.00  0.00     0.000 OA
ATOM     72   O  Z9K D   4       0.505  51.523 -16.2700  0.00  0.00     0.000 OA
ENDBRANCH 61 68
BRANCH 64 73
ATOM     73   C  Z9K D   4       4.780  45.303 -16.3790  0.00  0.00     0.000 C
ATOM     74   O  Z9K D   4       4.216  44.239 -15.9890  0.00  0.00     0.000 O
ATOM     75   O  Z9K D   4       5.932  45.192 -16.8660  0.00  0.00     0.000 OA
ENDBRANCH 64 73
BRANCH 60 76
ATOM     76  O4  Z9L D   5       2.969  48.220 -14.0030  0.00  0.00     0.000 O
BRANCH 76 80
ATOM     77  C1  Z9L D   5       2.340  47.505 -10.1220  0.00  0.00     0.000 C
ATOM     78  C2  Z9L D   5       3.570  46.582 -10.5760  0.00  0.00     0.000 C
ATOM     79  C3  Z9L D   5       4.126  47.204 -12.0470  0.00  0.00     0.000 C
ATOM     80  C4  Z9L D   5       2.703  47.520 -12.8150  0.00  0.00     0.000 C
ATOM     81  C5  Z9L D   5       1.363  48.248 -12.2920  0.00  0.00     0.000 C
ATOM     82  O5  Z9L D   5       1.141  47.775 -10.9550  0.00  0.00     0.000 O
ATOM     83   C  Z9L D   5       1.874  49.693  -9.1810  0.00  0.00     0.000 C
ATOM     84   C  Z9L D   5       1.874  49.693  -9.1810  0.00  0.00     0.000 C
BRANCH 78 85
ATOM     85   O  Z9L D   5       4.576  46.702  -9.6210  0.00  0.00     0.000 O
ATOM     86   O  Z9L D   5       5.152  45.295  -8.4380  0.00  0.00     0.000 OA
ATOM     87   S  Z9L D   5       4.208  45.142  -9.5030  0.00  0.00     0.000 S
ATOM     88   O  Z9L D   5       4.875  44.313 -10.4760  0.00  0.00     0.000 OA
ATOM     89   O  Z9L D   5       2.975  44.827  -8.8690  0.00  0.00     0.000 OA
ENDBRANCH 78 85
BRANCH 79 90
ATOM     90   O  Z9L D   5       4.683  46.205 -12.8420  0.00  0.00     0.000 O
ATOM     91   S  Z9L D   5       5.946  47.165 -12.6950  0.00  0.00     0.000 S
ATOM     92   O  Z9L D   5       6.474  47.554 -11.4140  0.00  0.00     0.000 OA
ATOM     93   O  Z9L D   5       5.995  48.064 -13.8210  0.00  0.00     0.000 O
ATOM     94   O  Z9L D   5       6.617  45.967 -13.0830  0.00  0.00     0.000 OA
ENDBRANCH 79 90
BRANCH 81 95
ATOM     95   C  Z9L D   5       0.059  48.308 -13.3460  0.00  0.00     0.000 C
ATOM     96   S  Z9L D   5      -1.676  47.461 -13.8350  0.00  0.00     0.000 S
ATOM     97   O  Z9L D   5      -0.283  46.948 -13.3090  0.00  0.00     0.000 O
ATOM     98   O  Z9L D   5      -1.484  47.846 -15.2100  0.00  0.00     0.000 OA
ATOM     99   O  Z9L D   5      -2.415  48.279 -12.9340  0.00  0.00     0.000 OA
ATOM    100   O  Z9L D   5      -1.965  46.049 -13.7930  0.00  0.00     0.000 O
ENDBRANCH 81 95
ENDBRANCH 76 80
ENDBRANCH 60 76
ENDBRANCH 59 63
ENDBRANCH 37 59
ENDBRANCH 36 40
ENDBRANCH 23 36
ENDBRANCH 22 26
ENDBRANCH 1 22
TORSDOF 19
ENDMDL
MODEL 6
REMARK VINA RESULT:      -7.1     41.614     46.086
ROOT
ATOM      1  C1  Z9H D   1       5.282  24.206 -56.1260  0.00  0.00     0.000 C
ATOM      2  C2  Z9H D   1       4.957  25.343 -57.1230  0.00  0.00     0.000 C
ATOM      3  C3  Z9H D   1       5.092  24.525 -58.4440  0.00  0.00     0.000 C
ATOM      4  C4  Z9H D   1       6.425  23.680 -58.5870  0.00  0.00     0.000 C
ATOM      5  C5  Z9H D   1       6.988  22.753 -57.4370  0.00  0.00     0.000 C
ATOM      6  O5  Z9H D   1       6.514  23.444 -56.2530  0.00  0.00     0.000 O
ATOM      7   O  Z9H D   1       4.900  25.349 -59.5960  0.00  0.00     0.000 O
ATOM      8   C  Z9H D   1       3.586  25.299 -60.1770  0.00  0.00     0.000 C
ATOM      9   O  Z9H D   1       6.242  22.856 -59.7430  0.00  0.00     0.000 O
ATOM     10   C  Z9H D   1       6.852  23.335 -60.9450  0.00  0.00     0.000 C
ENDROOT
BRANCH 2 11
ATOM     11   O  Z9H D   1       3.576  25.510 -56.9360  0.00  0.00     0.000 O
ATOM     12   O  Z9H D   1       2.775  27.099 -56.3120  0.00  0.00     0.000 OA
ATOM     13   S  Z9H D   1       4.169  26.932 -56.5520  0.00  0.00     0.000 S
ATOM     14   O  Z9H D   1       4.631  27.567 -57.7530  0.00  0.00     0.000 OA
ATOM     15   O  Z9H D   1       4.894  26.889 -55.3030  0.00  0.00     0.000 O
ENDBRANCH 2 11
BRANCH 5 16
ATOM     16   C  Z9H D   1       8.594  22.312 -57.6040  0.00  0.00     0.000 C
ATOM     17   S  Z9H D   1      10.189  21.570 -56.6330  0.00  0.00     0.000 S
ATOM     18   O  Z9H D   1       8.604  21.266 -56.6630  0.00  0.00     0.000 O
ATOM     19   O  Z9H D   1      10.549  22.836 -56.0610  0.00  0.00     0.000 O
ATOM     20   O  Z9H D   1      10.814  21.033 -57.7910  0.00  0.00     0.000 OA
ATOM     21   O  Z9H D   1      10.131  20.533 -55.6450  0.00  0.00     0.000 OA
ENDBRANCH 5 16
BRANCH 1 22
ATOM     22  O4  GU1 D   2       4.294  23.113 -56.0890  0.00  0.00     0.000 O
BRANCH 22 26
ATOM     23  C1  GU1 D   2       2.198  20.569 -53.6180  0.00  0.00     0.000 C
ATOM     24  C2  GU1 D   2       2.496  21.937 -53.0230  0.00  0.00     0.000 C
ATOM     25  C3  GU1 D   2       2.905  22.878 -54.1200  0.00  0.00     0.000 C
ATOM     26  C4  GU1 D   2       4.045  22.293 -54.9410  0.00  0.00     0.000 C
ATOM     27  C5  GU1 D   2       3.686  20.878 -55.4030  0.00  0.00     0.000 C
ATOM     28  O5  GU1 D   2       3.346  20.060 -54.2870  0.00  0.00     0.000 O
ATOM     29   O  GU1 D   2       1.362  22.488 -52.3640  0.00  0.00     0.000 O
ATOM     30   C  GU1 D   2       1.355  22.277 -50.9590  0.00  0.00     0.000 C
ATOM     31   C  GU1 D   2       2.409  25.169 -53.5770  0.00  0.00     0.000 C
ATOM     32   O  GU1 D   2       3.350  24.100 -53.5240  0.00  0.00     0.000 O
BRANCH 27 33
ATOM     33   C  GU1 D   2       4.846  20.226 -56.1180  0.00  0.00     0.000 C
ATOM     34   O  GU1 D   2       5.827  19.924 -55.4710  0.00  0.00     0.000 OA
ATOM     35   O  GU1 D   2       4.791  20.007 -57.3190  0.00  0.00     0.000 O
ENDBRANCH 27 33
BRANCH 23 36
ATOM     36  O4  GU6 D   3       2.023  19.429 -52.7530  0.00  0.00     0.000 O
BRANCH 36 40
ATOM     37  C1  GU6 D   3       1.113  15.466 -52.3520  0.00  0.00     0.000 C
ATOM     38  C2  GU6 D   3       2.517  15.829 -51.8840  0.00  0.00     0.000 C
ATOM     39  C3  GU6 D   3       2.655  17.327 -51.8170  0.00  0.00     0.000 C
ATOM     40  C4  GU6 D   3       1.576  18.138 -52.3930  0.00  0.00     0.000 C
ATOM     41  C5  GU6 D   3       1.046  17.453 -53.6950  0.00  0.00     0.000 C
ATOM     42  O5  GU6 D   3       0.906  16.029 -53.6390  0.00  0.00     0.000 O
BRANCH 38 43
ATOM     43   O  GU6 D   3       2.780  15.262 -50.6150  0.00  0.00     0.000 O
ATOM     44   S  GU6 D   3       3.756  14.094 -50.6380  0.00  0.00     0.000 S
ATOM     45   O  GU6 D   3       3.021  12.876 -51.0210  0.00  0.00     0.000 OA
ATOM     46   O  GU6 D   3       4.800  14.372 -51.6410  0.00  0.00     0.000 O
ATOM     47   O  GU6 D   3       4.358  13.957 -49.3150  0.00  0.00     0.000 OA
ENDBRANCH 38 43
BRANCH 39 48
ATOM     48   O  GU6 D   3       3.663  17.929 -51.0270  0.00  0.00     0.000 O
ATOM     49   S  GU6 D   3       3.597  18.475 -49.6010  0.00  0.00     0.000 S
ATOM     50   O  GU6 D   3       3.108  17.439 -48.6850  0.00  0.00     0.000 OA
ATOM     51   O  GU6 D   3       4.995  18.823 -49.3130  0.00  0.00     0.000 OA
ATOM     52   O  GU6 D   3       2.688  19.643 -49.5770  0.00  0.00     0.000 O
ENDBRANCH 39 48
BRANCH 41 53
ATOM     53   C  GU6 D   3       0.646  18.083 -55.0020  0.00  0.00     0.000 C
ATOM     54   O  GU6 D   3      -0.574  17.410 -55.1730  0.00  0.00     0.000 O
ATOM     55   S  GU6 D   3      -1.393  17.597 -56.4570  0.00  0.00     0.000 S
ATOM     56   O  GU6 D   3      -0.596  17.014 -57.5610  0.00  0.00     0.000 O
ATOM     57   O  GU6 D   3      -2.670  16.884 -56.3060  0.00  0.00     0.000 OA
ATOM     58   O  GU6 D   3      -1.584  19.052 -56.6480  0.00  0.00     0.000 OA
ENDBRANCH 41 53
BRANCH 37 59
ATOM     59  O4  Z9K D   4      -0.095  15.679 -51.5920  0.00  0.00     0.000 O
BRANCH 59 63
ATOM     60  C1  Z9K D   4      -1.895  12.254 -50.8990  0.00  0.00     0.000 C
ATOM     61  C2  Z9K D   4      -2.334  12.534 -52.3630  0.00  0.00     0.000 C
ATOM     62  C3  Z9K D   4      -1.459  13.819 -52.6990  0.00  0.00     0.000 C
ATOM     63  C4  Z9K D   4      -1.378  14.990 -51.6470  0.00  0.00     0.000 C
ATOM     64  C5  Z9K D   4      -1.603  14.594 -50.1800  0.00  0.00     0.000 C
ATOM     65  O5  Z9K D   4      -1.070  13.245 -50.1240  0.00  0.00     0.000 O
ATOM     66   O  Z9K D   4      -1.836  14.457 -53.9330  0.00  0.00     0.000 O
ATOM     67   C  Z9K D   4      -1.223  13.907 -55.0880  0.00  0.00     0.000 C
BRANCH 61 68
ATOM     68   O  Z9K D   4      -1.824  11.494 -53.1520  0.00  0.00     0.000 O
ATOM     69   O  Z9K D   4      -4.073  12.321 -54.0510  0.00  0.00     0.000 OA
ATOM     70   S  Z9K D   4      -3.422  11.282 -53.3100  0.00  0.00     0.000 S
ATOM     71   O  Z9K D   4      -3.929  10.655 -52.1280  0.00  0.00     0.000 OA
ATOM     72   O  Z9K D   4      -2.892  10.288 -54.1860  0.00  0.00     0.000 OA
ENDBRANCH 61 68
BRANCH 64 73
ATOM     73   C  Z9K D   4      -1.020  15.661 -49.2280  0.00  0.00     0.000 C
ATOM     74   O  Z9K D   4      -1.583  16.785 -49.0810  0.00  0.00     0.000 O
ATOM     75   O  Z9K D   4       0.024  15.455 -48.5630  0.00  0.00     0.000 OA
ENDBRANCH 64 73
BRANCH 60 76
ATOM     76  O4  Z9L D   5      -2.713  11.884 -49.7760  0.00  0.00     0.000 O
BRANCH 76 80
ATOM     77  C1  Z9L D   5      -2.943   8.944 -47.0790  0.00  0.00     0.000 C
ATOM     78  C2  Z9L D   5      -3.132  10.325 -46.2850  0.00  0.00     0.000 C
ATOM     79  C3  Z9L D   5      -3.494  11.504 -47.4430  0.00  0.00     0.000 C
ATOM     80  C4  Z9L D   5      -2.431  11.109 -48.6390  0.00  0.00     0.000 C
ATOM     81  C5  Z9L D   5      -2.062   9.682 -49.2920  0.00  0.00     0.000 C
ATOM     82  O5  Z9L D   5      -1.996   8.746 -48.2050  0.00  0.00     0.000 O
ATOM     83   C  Z9L D   5      -4.238   7.217 -48.1890  0.00  0.00     0.000 C
ATOM     84   C  Z9L D   5      -4.238   7.217 -48.1890  0.00  0.00     0.000 C
BRANCH 78 85
ATOM     85   O  Z9L D   5      -4.216  10.184 -45.4240  0.00  0.00     0.000 O
ATOM     86   O  Z9L D   5      -4.096  10.050 -43.5060  0.00  0.00     0.000 OA
ATOM     87   S  Z9L D   5      -2.999  10.321 -44.3840  0.00  0.00     0.000 S
ATOM     88   O  Z9L D   5      -2.624  11.686 -44.1050  0.00  0.00     0.000 OA
ATOM     89   O  Z9L D   5      -2.137   9.196 -44.2650  0.00  0.00     0.000 OA
ENDBRANCH 78 85
BRANCH 79 90
ATOM     90   O  Z9L D   5      -3.047  12.761 -47.0440  0.00  0.00     0.000 O
ATOM     91   S  Z9L D   5      -4.588  13.088 -47.2790  0.00  0.00     0.000 S
ATOM     92   O  Z9L D   5      -5.639  12.365 -46.6120  0.00  0.00     0.000 OA
ATOM     93   O  Z9L D   5      -4.769  13.596 -48.6160  0.00  0.00     0.000 O
ATOM     94   O  Z9L D   5      -4.245  14.197 -46.4490  0.00  0.00     0.000 OA
ENDBRANCH 79 90
BRANCH 81 95
ATOM     95   C  Z9L D   5      -0.843   9.656 -50.4440  0.00  0.00     0.000 C
ATOM     96   S  Z9L D   5       1.106   9.378 -50.7430  0.00  0.00     0.000 S
ATOM     97   O  Z9L D   5       0.223  10.020 -49.6090  0.00  0.00     0.000 O
ATOM     98   O  Z9L D   5       1.072  10.287 -51.8600  0.00  0.00     0.000 OA
ATOM     99   O  Z9L D   5       0.955   7.974 -50.9260  0.00  0.00     0.000 OA
ATOM    100   O  Z9L D   5       2.162   9.791 -49.8520  0.00  0.00     0.000 O
ENDBRANCH 81 95
ENDBRANCH 76 80
ENDBRANCH 60 76
ENDBRANCH 59 63
ENDBRANCH 37 59
ENDBRANCH 36 40
ENDBRANCH 23 36
ENDBRANCH 22 26
ENDBRANCH 1 22
TORSDOF 19
ENDMDL
MODEL 7
REMARK VINA RESULT:      -7.0     30.083     38.346
ROOT
ATOM      1  C1  Z9H D   1       7.433  42.809 -24.7470  0.00  0.00     0.000 C
ATOM      2  C2  Z9H D   1       8.602  42.876 -25.7590  0.00  0.00     0.000 C
ATOM      3  C3  Z9H D   1       7.796  43.374 -26.9970  0.00  0.00     0.000 C
ATOM      4  C4  Z9H D   1       6.484  42.550 -27.3300  0.00  0.00     0.000 C
ATOM      5  C5  Z9H D   1       5.412  42.155 -26.2390  0.00  0.00     0.000 C
ATOM      6  O5  Z9H D   1       6.238  42.039 -25.0530  0.00  0.00     0.000 O
ATOM      7   O  Z9H D   1       8.624  43.480 -28.1570  0.00  0.00     0.000 O
ATOM      8   C  Z9H D   1       9.109  44.801 -28.4500  0.00  0.00     0.000 C
ATOM      9   O  Z9H D   1       5.802  43.297 -28.3420  0.00  0.00     0.000 O
ATOM     10   C  Z9H D   1       5.990  42.835 -29.6830  0.00  0.00     0.000 C
ENDROOT
BRANCH 2 11
ATOM     11   O  Z9H D   1       9.313  44.000 -25.3100  0.00  0.00     0.000 O
ATOM     12   O  Z9H D   1      11.068  43.938 -24.6200  0.00  0.00     0.000 OA
ATOM     13   S  Z9H D   1      10.353  42.813 -25.1240  0.00  0.00     0.000 S
ATOM     14   O  Z9H D   1      10.786  42.385 -26.4230  0.00  0.00     0.000 OA
ATOM     15   O  Z9H D   1       9.972  41.934 -24.0430  0.00  0.00     0.000 O
ENDBRANCH 2 11
BRANCH 5 16
ATOM     16   C  Z9H D   1       4.359  40.934 -26.6880  0.00  0.00     0.000 C
ATOM     17   S  Z9H D   1       3.893  39.642 -28.1560  0.00  0.00     0.000 S
ATOM     18   O  Z9H D   1       5.253  40.192 -27.4820  0.00  0.00     0.000 O
ATOM     19   O  Z9H D   1       3.158  40.616 -28.9110  0.00  0.00     0.000 O
ATOM     20   O  Z9H D   1       3.275  38.687 -27.3040  0.00  0.00     0.000 OA
ATOM     21   O  Z9H D   1       4.853  38.950 -28.9660  0.00  0.00     0.000 OA
ENDBRANCH 5 16
BRANCH 1 22
ATOM     22  O4  GU1 D   2       6.833  44.112 -24.4080  0.00  0.00     0.000 O
BRANCH 22 26
ATOM     23  C1  GU1 D   2       5.628  45.836 -20.8660  0.00  0.00     0.000 C
ATOM     24  C2  GU1 D   2       5.964  44.355 -20.7740  0.00  0.00     0.000 C
ATOM     25  C3  GU1 D   2       6.738  43.945 -21.9940  0.00  0.00     0.000 C
ATOM     26  C4  GU1 D   2       6.000  44.339 -23.2650  0.00  0.00     0.000 C
ATOM     27  C5  GU1 D   2       5.617  45.821 -23.2100  0.00  0.00     0.000 C
ATOM     28  O5  GU1 D   2       4.860  46.098 -22.0350  0.00  0.00     0.000 O
ATOM     29   O  GU1 D   2       6.752  44.059 -19.6270  0.00  0.00     0.000 O
ATOM     30   C  GU1 D   2       5.998  43.588 -18.5190  0.00  0.00     0.000 C
ATOM     31   C  GU1 D   2       8.174  42.062 -21.5620  0.00  0.00     0.000 C
ATOM     32   O  GU1 D   2       6.890  42.522 -21.9750  0.00  0.00     0.000 O
BRANCH 27 33
ATOM     33   C  GU1 D   2       4.778  46.213 -24.4040  0.00  0.00     0.000 C
ATOM     34   O  GU1 D   2       3.725  45.637 -24.5840  0.00  0.00     0.000 OA
ATOM     35   O  GU1 D   2       5.153  47.092 -25.1640  0.00  0.00     0.000 O
ENDBRANCH 27 33
BRANCH 23 36
ATOM     36  O4  GU6 D   3       4.684  46.419 -19.9460  0.00  0.00     0.000 O
BRANCH 36 40
ATOM     37  C1  GU6 D   3       2.713  47.945 -16.7090  0.00  0.00     0.000 C
ATOM     38  C2  GU6 D   3       2.013  46.756 -17.3550  0.00  0.00     0.000 C
ATOM     39  C3  GU6 D   3       2.938  46.106 -18.3500  0.00  0.00     0.000 C
ATOM     40  C4  GU6 D   3       4.183  46.807 -18.6820  0.00  0.00     0.000 C
ATOM     41  C5  GU6 D   3       3.915  48.347 -18.7450  0.00  0.00     0.000 C
ATOM     42  O5  GU6 D   3       3.059  48.873 -17.7250  0.00  0.00     0.000 O
BRANCH 38 43
ATOM     43   O  GU6 D   3       1.620  45.816 -16.3740  0.00  0.00     0.000 O
ATOM     44   S  GU6 D   3       0.188  45.980 -15.8830  0.00  0.00     0.000 S
ATOM     45   O  GU6 D   3       0.161  47.044 -14.8640  0.00  0.00     0.000 OA
ATOM     46   O  GU6 D   3      -0.659  46.373 -17.0240  0.00  0.00     0.000 O
ATOM     47   O  GU6 D   3      -0.270  44.707 -15.3350  0.00  0.00     0.000 OA
ENDBRANCH 38 43
BRANCH 39 48
ATOM     48   O  GU6 D   3       2.731  44.770 -18.7680  0.00  0.00     0.000 O
ATOM     49   S  GU6 D   3       1.778  44.209 -19.8230  0.00  0.00     0.000 S
ATOM     50   O  GU6 D   3       2.004  44.872 -21.1120  0.00  0.00     0.000 OA
ATOM     51   O  GU6 D   3       2.148  42.788 -19.8840  0.00  0.00     0.000 OA
ATOM     52   O  GU6 D   3       0.385  44.430 -19.3760  0.00  0.00     0.000 O
ENDBRANCH 39 48
BRANCH 41 53
ATOM     53   C  GU6 D   3       4.444  49.361 -19.7220  0.00  0.00     0.000 C
ATOM     54   O  GU6 D   3       3.466  49.197 -20.7160  0.00  0.00     0.000 O
ATOM     55   S  GU6 D   3       3.582  49.943 -22.0520  0.00  0.00     0.000 S
ATOM     56   O  GU6 D   3       4.776  49.401 -22.7420  0.00  0.00     0.000 O
ATOM     57   O  GU6 D   3       2.366  49.687 -22.8380  0.00  0.00     0.000 OA
ATOM     58   O  GU6 D   3       3.754  51.379 -21.7400  0.00  0.00     0.000 OA
ENDBRANCH 41 53
BRANCH 37 59
ATOM     59  O4  Z9K D   4       3.837  47.856 -15.8080  0.00  0.00     0.000 O
BRANCH 59 63
ATOM     60  C1  Z9K D   4       2.545  49.331 -12.4010  0.00  0.00     0.000 C
ATOM     61  C2  Z9K D   4       3.054  50.615 -13.1120  0.00  0.00     0.000 C
ATOM     62  C3  Z9K D   4       3.403  50.044 -14.5540  0.00  0.00     0.000 C
ATOM     63  C4  Z9K D   4       4.203  48.690 -14.6710  0.00  0.00     0.000 C
ATOM     64  C5  Z9K D   4       4.061  47.719 -13.4900  0.00  0.00     0.000 C
ATOM     65  O5  Z9K D   4       2.709  47.972 -13.0250  0.00  0.00     0.000 O
ATOM     66   O  Z9K D   4       4.131  50.975 -15.3750  0.00  0.00     0.000 O
ATOM     67   C  Z9K D   4       3.316  51.891 -16.0860  0.00  0.00     0.000 C
BRANCH 61 68
ATOM     68   O  Z9K D   4       1.947  51.458 -13.2800  0.00  0.00     0.000 O
ATOM     69   O  Z9K D   4       4.097  52.807 -12.9520  0.00  0.00     0.000 OA
ATOM     70   S  Z9K D   4       2.900  52.345 -12.3160  0.00  0.00     0.000 S
ATOM     71   O  Z9K D   4       2.803  51.846 -10.9790  0.00  0.00     0.000 OA
ATOM     72   O  Z9K D   4       1.812  53.232 -12.5730  0.00  0.00     0.000 OA
ENDBRANCH 61 68
BRANCH 64 73
ATOM     73   C  Z9K D   4       4.444  46.284 -13.9100  0.00  0.00     0.000 C
ATOM     74   O  Z9K D   4       5.627  45.996 -14.2550  0.00  0.00     0.000 O
ATOM     75   O  Z9K D   4       3.605  45.351 -13.9190  0.00  0.00     0.000 OA
ENDBRANCH 64 73
BRANCH 60 76
ATOM     76  O4  Z9L D   5       2.825  48.877 -11.0660  0.00  0.00     0.000 O
BRANCH 76 80
ATOM     77  C1  Z9L D   5       1.214  47.319  -7.7570  0.00  0.00     0.000 C
ATOM     78  C2  Z9L D   5       2.224  46.223  -8.3490  0.00  0.00     0.000 C
ATOM     79  C3  Z9L D   5       3.227  47.029  -9.4470  0.00  0.00     0.000 C
ATOM     80  C4  Z9L D   5       2.136  47.989 -10.2240  0.00  0.00     0.000 C
ATOM     81  C5  Z9L D   5       0.956  48.925  -9.6480  0.00  0.00     0.000 C
ATOM     82  O5  Z9L D   5       0.336  48.185  -8.5850  0.00  0.00     0.000 O
ATOM     83   C  Z9L D   5       1.152  49.175  -6.1940  0.00  0.00     0.000 C
ATOM     84   C  Z9L D   5       1.152  49.175  -6.1940  0.00  0.00     0.000 C
BRANCH 78 85
ATOM     85   O  Z9L D   5       2.997  45.736  -7.2980  0.00  0.00     0.000 O
ATOM     86   O  Z9L D   5       2.874  43.960  -6.5640  0.00  0.00     0.000 OA
ATOM     87   S  Z9L D   5       2.172  44.424  -7.7220  0.00  0.00     0.000 S
ATOM     88   O  Z9L D   5       2.755  43.702  -8.8260  0.00  0.00     0.000 OA
ATOM     89   O  Z9L D   5       0.796  44.397  -7.3620  0.00  0.00     0.000 OA
ENDBRANCH 78 85
BRANCH 79 90
ATOM     90   O  Z9L D   5       3.656  46.177 -10.4610  0.00  0.00     0.000 O
ATOM     91   S  Z9L D   5       5.064  46.571  -9.8280  0.00  0.00     0.000 S
ATOM     92   O  Z9L D   5       5.366  46.371  -8.4350  0.00  0.00     0.000 OA
ATOM     93   O  Z9L D   5       5.618  47.687 -10.5540  0.00  0.00     0.000 O
ATOM     94   O  Z9L D   5       5.451  45.384 -10.5200  0.00  0.00     0.000 OA
ENDBRANCH 79 90
BRANCH 81 95
ATOM     95   C  Z9L D   5      -0.028  49.697 -10.7650  0.00  0.00     0.000 C
ATOM     96   S  Z9L D   5      -1.756  49.599 -11.7510  0.00  0.00     0.000 S
ATOM     97   O  Z9L D   5      -0.672  48.560 -11.2750  0.00  0.00     0.000 O
ATOM     98   O  Z9L D   5      -1.178  50.327 -12.8510  0.00  0.00     0.000 OA
ATOM     99   O  Z9L D   5      -2.472  50.266 -10.7150  0.00  0.00     0.000 OA
ATOM    100   O  Z9L D   5      -2.363  48.398 -12.2680  0.00  0.00     0.000 O
ENDBRANCH 81 95
ENDBRANCH 76 80
ENDBRANCH 60 76
ENDBRANCH 59 63
ENDBRANCH 37 59
ENDBRANCH 36 40
ENDBRANCH 23 36
ENDBRANCH 22 26
ENDBRANCH 1 22
TORSDOF 19
ENDMDL
MODEL 8
REMARK VINA RESULT:      -6.9     42.641     46.077
ROOT
ATOM      1  C1  Z9H D   1      -4.430  11.409 -46.8220  0.00  0.00     0.000 C
ATOM      2  C2  Z9H D   1      -4.953  11.249 -45.3750  0.00  0.00     0.000 C
ATOM      3  C3  Z9H D   1      -4.017  10.085 -44.9270  0.00  0.00     0.000 C
ATOM      4  C4  Z9H D   1      -3.962   8.842 -45.9090  0.00  0.00     0.000 C
ATOM      5  C5  Z9H D   1      -3.770   8.983 -47.4720  0.00  0.00     0.000 C
ATOM      6  O5  Z9H D   1      -4.395  10.267 -47.7230  0.00  0.00     0.000 O
ATOM      7   O  Z9H D   1      -4.311   9.654 -43.5970  0.00  0.00     0.000 O
ATOM      8   C  Z9H D   1      -3.458  10.192 -42.5730  0.00  0.00     0.000 C
ATOM      9   O  Z9H D   1      -2.900   8.012 -45.4260  0.00  0.00     0.000 O
ATOM     10   C  Z9H D   1      -3.304   6.896 -44.6270  0.00  0.00     0.000 C
ENDROOT
BRANCH 2 11
ATOM     11   O  Z9H D   1      -4.436  12.395 -44.7490  0.00  0.00     0.000 O
ATOM     12   O  Z9H D   1      -5.495  13.796 -44.0620  0.00  0.00     0.000 OA
ATOM     13   S  Z9H D   1      -6.007  12.607 -44.6550  0.00  0.00     0.000 S
ATOM     14   O  Z9H D   1      -6.533  11.666 -43.7080  0.00  0.00     0.000 OA
ATOM     15   O  Z9H D   1      -6.585  12.897 -45.9470  0.00  0.00     0.000 O
ENDBRANCH 2 11
BRANCH 5 16
ATOM     16   C  Z9H D   1      -4.180   7.626 -48.3610  0.00  0.00     0.000 C
ATOM     17   S  Z9H D   1      -3.615   6.446 -49.8870  0.00  0.00     0.000 S
ATOM     18   O  Z9H D   1      -2.876   7.192 -48.6610  0.00  0.00     0.000 O
ATOM     19   O  Z9H D   1      -4.153   7.321 -50.8890  0.00  0.00     0.000 O
ATOM     20   O  Z9H D   1      -4.293   5.287 -49.4190  0.00  0.00     0.000 OA
ATOM     21   O  Z9H D   1      -2.260   6.075 -50.1710  0.00  0.00     0.000 OA
ENDBRANCH 5 16
BRANCH 1 22
ATOM     22  O4  GU1 D   2      -3.036  11.876 -46.9290  0.00  0.00     0.000 O
BRANCH 22 26
ATOM     23  C1  GU1 D   2      -0.421  14.344 -48.9390  0.00  0.00     0.000 C
ATOM     24  C2  GU1 D   2      -1.779  14.959 -48.6400  0.00  0.00     0.000 C
ATOM     25  C3  GU1 D   2      -2.480  14.136 -47.5990  0.00  0.00     0.000 C
ATOM     26  C4  GU1 D   2      -2.536  12.672 -48.0100  0.00  0.00     0.000 C
ATOM     27  C5  GU1 D   2      -1.136  12.180 -48.3890  0.00  0.00     0.000 C
ATOM     28  O5  GU1 D   2      -0.574  13.008 -49.4040  0.00  0.00     0.000 O
ATOM     29   O  GU1 D   2      -1.665  16.290 -48.1510  0.00  0.00     0.000 O
ATOM     30   C  GU1 D   2      -1.834  17.286 -49.1500  0.00  0.00     0.000 C
ATOM     31   C  GU1 D   2      -4.044  15.440 -46.3160  0.00  0.00     0.000 C
ATOM     32   O  GU1 D   2      -3.819  14.624 -47.4620  0.00  0.00     0.000 O
BRANCH 27 33
ATOM     33   C  GU1 D   2      -1.177  10.766 -48.9160  0.00  0.00     0.000 C
ATOM     34   O  GU1 D   2      -1.808  10.545 -49.9290  0.00  0.00     0.000 OA
ATOM     35   O  GU1 D   2      -0.585   9.869 -48.3360  0.00  0.00     0.000 O
ENDBRANCH 27 33
BRANCH 23 36
ATOM     36  O4  GU6 D   3       0.344  14.800 -50.0720  0.00  0.00     0.000 O
BRANCH 36 40
ATOM     37  C1  GU6 D   3       2.522  16.892 -52.8240  0.00  0.00     0.000 C
ATOM     38  C2  GU6 D   3       1.064  16.686 -53.2170  0.00  0.00     0.000 C
ATOM     39  C3  GU6 D   3       0.294  16.155 -52.0360  0.00  0.00     0.000 C
ATOM     40  C4  GU6 D   3       1.059  15.732 -50.8580  0.00  0.00     0.000 C
ATOM     41  C5  GU6 D   3       2.381  15.033 -51.3160  0.00  0.00     0.000 C
ATOM     42  O5  GU6 D   3       3.062  15.644 -52.4170  0.00  0.00     0.000 O
BRANCH 38 43
ATOM     43   O  GU6 D   3       0.491  17.900 -53.6600  0.00  0.00     0.000 O
ATOM     44   S  GU6 D   3       0.359  18.018 -55.1730  0.00  0.00     0.000 S
ATOM     45   O  GU6 D   3       1.659  18.437 -55.7260  0.00  0.00     0.000 OA
ATOM     46   O  GU6 D   3      -0.002  16.697 -55.7180  0.00  0.00     0.000 O
ATOM     47   O  GU6 D   3      -0.687  18.988 -55.4800  0.00  0.00     0.000 OA
ENDBRANCH 38 43
BRANCH 39 48
ATOM     48   O  GU6 D   3      -1.114  16.276 -51.9730  0.00  0.00     0.000 O
ATOM     49   S  GU6 D   3      -2.203  15.386 -52.5720  0.00  0.00     0.000 S
ATOM     50   O  GU6 D   3      -2.024  13.999 -52.1260  0.00  0.00     0.000 OA
ATOM     51   O  GU6 D   3      -3.440  15.963 -52.0280  0.00  0.00     0.000 OA
ATOM     52   O  GU6 D   3      -2.124  15.458 -54.0480  0.00  0.00     0.000 O
ENDBRANCH 39 48
BRANCH 41 53
ATOM     53   C  GU6 D   3       3.050  13.809 -50.7500  0.00  0.00     0.000 C
ATOM     54   O  GU6 D   3       2.421  12.854 -51.5640  0.00  0.00     0.000 O
ATOM     55   S  GU6 D   3       2.660  11.356 -51.3330  0.00  0.00     0.000 S
ATOM     56   O  GU6 D   3       2.075  11.028 -50.0120  0.00  0.00     0.000 O
ATOM     57   O  GU6 D   3       1.987  10.604 -52.4020  0.00  0.00     0.000 OA
ATOM     58   O  GU6 D   3       4.125  11.140 -51.3340  0.00  0.00     0.000 OA
ENDBRANCH 41 53
BRANCH 37 59
ATOM     59  O4  Z9K D   4       2.996  17.889 -51.8950  0.00  0.00     0.000 O
BRANCH 59 63
ATOM     60  C1  Z9K D   4       2.780  21.222 -53.9670  0.00  0.00     0.000 C
ATOM     61  C2  Z9K D   4       4.238  20.776 -54.2650  0.00  0.00     0.000 C
ATOM     62  C3  Z9K D   4       4.261  19.342 -53.5790  0.00  0.00     0.000 C
ATOM     63  C4  Z9K D   4       3.648  19.170 -52.1370  0.00  0.00     0.000 C
ATOM     64  C5  Z9K D   4       2.554  20.175 -51.7460  0.00  0.00     0.000 C
ATOM     65  O5  Z9K D   4       1.905  20.455 -53.0140  0.00  0.00     0.000 O
ATOM     66   O  Z9K D   4       5.581  18.775 -53.4890  0.00  0.00     0.000 O
ATOM     67   C  Z9K D   4       5.999  18.075 -54.6500  0.00  0.00     0.000 C
BRANCH 61 68
ATOM     68   O  Z9K D   4       4.326  20.554 -55.6460  0.00  0.00     0.000 O
ATOM     69   O  Z9K D   4       6.561  21.358 -54.6940  0.00  0.00     0.000 OA
ATOM     70   S  Z9K D   4       5.397  21.749 -55.4310  0.00  0.00     0.000 S
ATOM     71   O  Z9K D   4       4.692  22.986 -55.2850  0.00  0.00     0.000 OA
ATOM     72   O  Z9K D   4       5.547  21.448 -56.8180  0.00  0.00     0.000 OA
ENDBRANCH 61 68
BRANCH 64 73
ATOM     73   C  Z9K D   4       1.701  19.631 -50.5800  0.00  0.00     0.000 C
ATOM     74   O  Z9K D   4       0.465  19.401 -50.7240  0.00  0.00     0.000 O
ATOM     75   O  Z9K D   4       2.198  19.391 -49.4530  0.00  0.00     0.000 OA
ENDBRANCH 64 73
BRANCH 60 76
ATOM     76  O4  Z9L D   5       2.309  22.512 -53.5400  0.00  0.00     0.000 O
BRANCH 76 80
ATOM     77  C1  Z9L D   5      -0.482  25.325 -54.0570  0.00  0.00     0.000 C
ATOM     78  C2  Z9L D   5      -0.728  24.680 -52.6100  0.00  0.00     0.000 C
ATOM     79  C3  Z9L D   5       0.685  23.844 -52.2040  0.00  0.00     0.000 C
ATOM     80  C4  Z9L D   5       1.045  23.117 -53.6380  0.00  0.00     0.000 C
ATOM     81  C5  Z9L D   5       1.073  23.704 -55.1400  0.00  0.00     0.000 C
ATOM     82  O5  Z9L D   5      -0.075  24.557 -55.2610  0.00  0.00     0.000 O
ATOM     83   C  Z9L D   5       0.705  27.152 -55.1270  0.00  0.00     0.000 C
ATOM     84   C  Z9L D   5       0.705  27.152 -55.1270  0.00  0.00     0.000 C
BRANCH 78 85
ATOM     85   O  Z9L D   5      -0.923  25.716 -51.7020  0.00  0.00     0.000 O
ATOM     86   O  Z9L D   5      -2.592  26.129 -50.8340  0.00  0.00     0.000 OA
ATOM     87   S  Z9L D   5      -2.356  24.991 -51.6700  0.00  0.00     0.000 S
ATOM     88   O  Z9L D   5      -2.414  23.857 -50.7810  0.00  0.00     0.000 OA
ATOM     89   O  Z9L D   5      -3.189  25.183 -52.8070  0.00  0.00     0.000 OA
ENDBRANCH 78 85
BRANCH 79 90
ATOM     90   O  Z9L D   5       0.413  22.760 -51.3750  0.00  0.00     0.000 O
ATOM     91   S  Z9L D   5       1.384  23.587 -50.4220  0.00  0.00     0.000 S
ATOM     92   O  Z9L D   5       1.124  24.956 -50.0580  0.00  0.00     0.000 OA
ATOM     93   O  Z9L D   5       2.733  23.105 -50.5800  0.00  0.00     0.000 O
ATOM     94   O  Z9L D   5       0.754  22.763 -49.4420  0.00  0.00     0.000 OA
ENDBRANCH 79 90
BRANCH 81 95
ATOM     95   C  Z9L D   5       1.402  22.625 -56.3810  0.00  0.00     0.000 C
ATOM     96   S  Z9L D   5       0.627  21.648 -57.9350  0.00  0.00     0.000 S
ATOM     97   O  Z9L D   5       0.117  22.076 -56.5080  0.00  0.00     0.000 O
ATOM     98   O  Z9L D   5       1.564  20.573 -57.7350  0.00  0.00     0.000 OA
ATOM     99   O  Z9L D   5       0.903  22.714 -58.8380  0.00  0.00     0.000 OA
ATOM    100   O  Z9L D   5      -0.700  21.089 -58.0010  0.00  0.00     0.000 O
ENDBRANCH 81 95
ENDBRANCH 76 80
ENDBRANCH 60 76
ENDBRANCH 59 63
ENDBRANCH 37 59
ENDBRANCH 36 40
ENDBRANCH 23 36
ENDBRANCH 22 26
ENDBRANCH 1 22
TORSDOF 19
ENDMDL
MODEL 9
REMARK VINA RESULT:      -6.9     37.805     43.070
ROOT
ATOM      1  C1  Z9H D   1      15.965   8.195 -54.3200  0.00  0.00     0.000 C
ATOM      2  C2  Z9H D   1      16.287   8.776 -55.7170  0.00  0.00     0.000 C
ATOM      3  C3  Z9H D   1      17.096   7.567 -56.2800  0.00  0.00     0.000 C
ATOM      4  C4  Z9H D   1      18.254   7.029 -55.3410  0.00  0.00     0.000 C
ATOM      5  C5  Z9H D   1      18.054   6.744 -53.7990  0.00  0.00     0.000 C
ATOM      6  O5  Z9H D   1      17.034   7.716 -53.4570  0.00  0.00     0.000 O
ATOM      7   O  Z9H D   1      17.601   7.836 -57.5890  0.00  0.00     0.000 O
ATOM      8   C  Z9H D   1      16.824   7.298 -58.6720  0.00  0.00     0.000 C
ATOM      9   O  Z9H D   1      18.706   5.810 -55.9410  0.00  0.00     0.000 O
ATOM     10   C  Z9H D   1      19.895   5.915 -56.7300  0.00  0.00     0.000 C
ENDROOT
BRANCH 2 11
ATOM     11   O  Z9H D   1      15.039   8.710 -56.3560  0.00  0.00     0.000 O
ATOM     12   O  Z9H D   1      14.025  10.218 -56.8610  0.00  0.00     0.000 OA
ATOM     13   S  Z9H D   1      15.314  10.271 -56.2560  0.00  0.00     0.000 S
ATOM     14   O  Z9H D   1      16.370  10.602 -57.1700  0.00  0.00     0.000 OA
ATOM     15   O  Z9H D   1      15.213  10.746 -54.8950  0.00  0.00     0.000 O
ENDBRANCH 2 11
BRANCH 5 16
ATOM     16   C  Z9H D   1      19.468   6.617 -52.9130  0.00  0.00     0.000 C
ATOM     17   S  Z9H D   1      21.395   7.183 -52.8290  0.00  0.00     0.000 S
ATOM     18   O  Z9H D   1      19.993   7.889 -53.2070  0.00  0.00     0.000 O
ATOM     19   O  Z9H D   1      21.830   6.175 -53.7530  0.00  0.00     0.000 O
ATOM     20   O  Z9H D   1      21.513   7.051 -51.4190  0.00  0.00     0.000 OA
ATOM     21   O  Z9H D   1      21.878   8.484 -53.1880  0.00  0.00     0.000 OA
ENDBRANCH 5 16
BRANCH 1 22
ATOM     22  O4  GU1 D   2      15.079   7.017 -54.3280  0.00  0.00     0.000 O
BRANCH 22 26
ATOM     23  C1  GU1 D   2      11.895   5.298 -52.3610  0.00  0.00     0.000 C
ATOM     24  C2  GU1 D   2      12.032   6.800 -52.1640  0.00  0.00     0.000 C
ATOM     25  C3  GU1 D   2      12.960   7.355 -53.2060  0.00  0.00     0.000 C
ATOM     26  C4  GU1 D   2      14.283   6.603 -53.2120  0.00  0.00     0.000 C
ATOM     27  C5  GU1 D   2      14.029   5.095 -53.3090  0.00  0.00     0.000 C
ATOM     28  O5  GU1 D   2      13.166   4.667 -52.2590  0.00  0.00     0.000 O
ATOM     29   O  GU1 D   2      10.782   7.468 -52.2810  0.00  0.00     0.000 O
ATOM     30   C  GU1 D   2      10.149   7.725 -51.0350  0.00  0.00     0.000 C
ATOM     31   C  GU1 D   2      12.495   9.665 -53.6930  0.00  0.00     0.000 C
ATOM     32   O  GU1 D   2      13.216   8.728 -52.8970  0.00  0.00     0.000 O
BRANCH 27 33
ATOM     33   C  GU1 D   2      15.318   4.316 -53.1960  0.00  0.00     0.000 C
ATOM     34   O  GU1 D   2      15.920   4.345 -52.1420  0.00  0.00     0.000 OA
ATOM     35   O  GU1 D   2      15.737   3.669 -54.1430  0.00  0.00     0.000 O
ENDBRANCH 27 33
BRANCH 23 36
ATOM     36  O4  GU6 D   3      11.258   4.493 -51.3480  0.00  0.00     0.000 O
BRANCH 36 40
ATOM     37  C1  GU6 D   3       8.877   2.937 -48.4150  0.00  0.00     0.000 C
ATOM     38  C2  GU6 D   3      10.257   3.363 -47.9310  0.00  0.00     0.000 C
ATOM     39  C3  GU6 D   3      10.946   4.162 -49.0060  0.00  0.00     0.000 C
ATOM     40  C4  GU6 D   3      10.320   4.200 -50.3330  0.00  0.00     0.000 C
ATOM     41  C5  GU6 D   3       9.707   2.799 -50.6620  0.00  0.00     0.000 C
ATOM     42  O5  GU6 D   3       9.032   2.143 -49.5820  0.00  0.00     0.000 O
BRANCH 38 43
ATOM     43   O  GU6 D   3      10.154   4.133 -46.7480  0.00  0.00     0.000 O
ATOM     44   S  GU6 D   3      10.170   3.316 -45.4630  0.00  0.00     0.000 S
ATOM     45   O  GU6 D   3       8.816   2.786 -45.2270  0.00  0.00     0.000 OA
ATOM     46   O  GU6 D   3      11.113   2.195 -45.6280  0.00  0.00     0.000 O
ATOM     47   O  GU6 D   3      10.603   4.176 -44.3650  0.00  0.00     0.000 OA
ENDBRANCH 38 43
BRANCH 39 48
ATOM     48   O  GU6 D   3      12.020   5.028 -48.6930  0.00  0.00     0.000 O
ATOM     49   S  GU6 D   3      13.456   4.701 -48.2860  0.00  0.00     0.000 S
ATOM     50   O  GU6 D   3      14.082   3.835 -49.2920  0.00  0.00     0.000 OA
ATOM     51   O  GU6 D   3      14.100   6.021 -48.2480  0.00  0.00     0.000 OA
ATOM     52   O  GU6 D   3      13.440   4.021 -46.9720  0.00  0.00     0.000 O
ENDBRANCH 39 48
BRANCH 41 53
ATOM     53   C  GU6 D   3       9.712   2.044 -51.9640  0.00  0.00     0.000 C
ATOM     54   O  GU6 D   3       8.788   2.847 -52.6530  0.00  0.00     0.000 O
ATOM     55   S  GU6 D   3       8.314   2.456 -54.0590  0.00  0.00     0.000 S
ATOM     56   O  GU6 D   3       7.541   1.200 -53.9150  0.00  0.00     0.000 O
ATOM     57   O  GU6 D   3       7.462   3.533 -54.5820  0.00  0.00     0.000 OA
ATOM     58   O  GU6 D   3       9.522   2.245 -54.8870  0.00  0.00     0.000 OA
ENDBRANCH 41 53
BRANCH 37 59
ATOM     59  O4  Z9K D   4       7.768   3.831 -48.6490  0.00  0.00     0.000 O
BRANCH 59 63
ATOM     60  C1  Z9K D   4       4.289   4.886 -47.1570  0.00  0.00     0.000 C
ATOM     61  C2  Z9K D   4       4.252   3.347 -46.9470  0.00  0.00     0.000 C
ATOM     62  C3  Z9K D   4       5.729   2.948 -47.3800  0.00  0.00     0.000 C
ATOM     63  C4  Z9K D   4       6.336   3.565 -48.6970  0.00  0.00     0.000 C
ATOM     64  C5  Z9K D   4       5.765   4.923 -49.1320  0.00  0.00     0.000 C
ATOM     65  O5  Z9K D   4       5.435   5.554 -47.8660  0.00  0.00     0.000 O
ATOM     66   O  Z9K D   4       5.919   1.528 -47.5150  0.00  0.00     0.000 O
ATOM     67   C  Z9K D   4       6.241   0.862 -46.3050  0.00  0.00     0.000 C
BRANCH 61 68
ATOM     68   O  Z9K D   4       4.172   3.122 -45.5660  0.00  0.00     0.000 O
ATOM     69   O  Z9K D   4       2.907   1.321 -46.8720  0.00  0.00     0.000 OA
ATOM     70   S  Z9K D   4       2.766   2.510 -46.0870  0.00  0.00     0.000 S
ATOM     71   O  Z9K D   4       1.860   3.585 -46.3540  0.00  0.00     0.000 OA
ATOM     72   O  Z9K D   4       2.739   2.201 -44.6940  0.00  0.00     0.000 OA
ENDBRANCH 61 68
BRANCH 64 73
ATOM     73   C  Z9K D   4       6.735   5.646 -50.0900  0.00  0.00     0.000 C
ATOM     74   O  Z9K D   4       7.025   5.158 -51.2210  0.00  0.00     0.000 O
ATOM     75   O  Z9K D   4       7.266   6.743 -49.7900  0.00  0.00     0.000 OA
ENDBRANCH 64 73
BRANCH 60 76
ATOM     76  O4  Z9L D   5       3.284   5.733 -47.7410  0.00  0.00     0.000 O
BRANCH 76 80
ATOM     77  C1  Z9L D   5       1.491   9.298 -47.5180  0.00  0.00     0.000 C
ATOM     78  C2  Z9L D   5       2.306   9.267 -48.8990  0.00  0.00     0.000 C
ATOM     79  C3  Z9L D   5       2.671   7.645 -49.2120  0.00  0.00     0.000 C
ATOM     80  C4  Z9L D   5       3.114   7.127 -47.7120  0.00  0.00     0.000 C
ATOM     81  C5  Z9L D   5       2.421   7.347 -46.2730  0.00  0.00     0.000 C
ATOM     82  O5  Z9L D   5       1.978   8.712 -46.2430  0.00  0.00     0.000 O
ATOM     83   C  Z9L D   5      -0.708   8.803 -46.6170  0.00  0.00     0.000 C
ATOM     84   C  Z9L D   5      -0.708   8.803 -46.6170  0.00  0.00     0.000 C
BRANCH 78 85
ATOM     85   O  Z9L D   5       1.471   9.749 -49.9040  0.00  0.00     0.000 O
ATOM     86   O  Z9L D   5       1.693  11.431 -50.8150  0.00  0.00     0.000 OA
ATOM     87   S  Z9L D   5       2.617  10.875 -49.8730  0.00  0.00     0.000 S
ATOM     88   O  Z9L D   5       3.785  10.538 -50.6490  0.00  0.00     0.000 OA
ATOM     89   O  Z9L D   5       2.601  11.766 -48.7640  0.00  0.00     0.000 OA
ENDBRANCH 78 85
BRANCH 79 90
ATOM     90   O  Z9L D   5       3.853   7.523 -49.9360  0.00  0.00     0.000 O
ATOM     91   S  Z9L D   5       2.852   6.790 -50.9340  0.00  0.00     0.000 S
ATOM     92   O  Z9L D   5       1.666   7.429 -51.4430  0.00  0.00     0.000 OA
ATOM     93   O  Z9L D   5       2.879   5.371 -50.6820  0.00  0.00     0.000 O
ATOM     94   O  Z9L D   5       3.911   7.076 -51.8470  0.00  0.00     0.000 OA
ENDBRANCH 79 90
BRANCH 81 95
ATOM     95   C  Z9L D   5       3.223   6.738 -44.9320  0.00  0.00     0.000 C
ATOM     96   S  Z9L D   5       4.609   7.119 -43.5530  0.00  0.00     0.000 S
ATOM     97   O  Z9L D   5       4.422   7.449 -45.0820  0.00  0.00     0.000 O
ATOM     98   O  Z9L D   5       4.920   5.715 -43.4670  0.00  0.00     0.000 OA
ATOM     99   O  Z9L D   5       3.671   7.726 -42.6700  0.00  0.00     0.000 OA
ATOM    100   O  Z9L D   5       5.836   7.845 -43.7710  0.00  0.00     0.000 O
ENDBRANCH 81 95
ENDBRANCH 76 80
ENDBRANCH 60 76
ENDBRANCH 59 63
ENDBRANCH 37 59
ENDBRANCH 36 40
ENDBRANCH 23 36
ENDBRANCH 22 26
ENDBRANCH 1 22
TORSDOF 19
ENDMDL
MODEL 10
REMARK VINA RESULT:      -6.9     34.481     41.287
ROOT
ATOM      1  C1  Z9H D   1      22.584   6.600 -47.5570  0.00  0.00     0.000 C
ATOM      2  C2  Z9H D   1      23.858   6.632 -46.6790  0.00  0.00     0.000 C
ATOM      3  C3  Z9H D   1      24.053   5.093 -46.5150  0.00  0.00     0.000 C
ATOM      4  C4  Z9H D   1      22.768   4.292 -46.0470  0.00  0.00     0.000 C
ATOM      5  C5  Z9H D   1      21.343   4.486 -46.7020  0.00  0.00     0.000 C
ATOM      6  O5  Z9H D   1      21.403   5.875 -47.1150  0.00  0.00     0.000 O
ATOM      7   O  Z9H D   1      25.163   4.791 -45.6670  0.00  0.00     0.000 O
ATOM      8   C  Z9H D   1      26.386   4.464 -46.3480  0.00  0.00     0.000 C
ATOM      9   O  Z9H D   1      23.107   2.907 -46.1740  0.00  0.00     0.000 O
ATOM     10   C  Z9H D   1      23.502   2.255 -44.9630  0.00  0.00     0.000 C
ENDROOT
BRANCH 2 11
ATOM     11   O  Z9H D   1      24.839   7.028 -47.6020  0.00  0.00     0.000 O
ATOM     12   O  Z9H D   1      25.735   8.687 -47.5500  0.00  0.00     0.000 OA
ATOM     13   S  Z9H D   1      24.773   8.253 -46.5930  0.00  0.00     0.000 S
ATOM     14   O  Z9H D   1      25.344   7.839 -45.3430  0.00  0.00     0.000 OA
ATOM     15   O  Z9H D   1      23.545   9.000 -46.7390  0.00  0.00     0.000 O
ENDBRANCH 2 11
BRANCH 5 16
ATOM     16   C  Z9H D   1      20.062   3.902 -45.7980  0.00  0.00     0.000 C
ATOM     17   S  Z9H D   1      18.338   2.873 -45.8900  0.00  0.00     0.000 S
ATOM     18   O  Z9H D   1      19.802   2.746 -46.5580  0.00  0.00     0.000 O
ATOM     19   O  Z9H D   1      17.573   4.007 -46.3240  0.00  0.00     0.000 O
ATOM     20   O  Z9H D   1      18.374   2.428 -44.5400  0.00  0.00     0.000 OA
ATOM     21   O  Z9H D   1      18.117   1.727 -46.7220  0.00  0.00     0.000 OA
ENDBRANCH 5 16
BRANCH 1 22
ATOM     22  O4  GU1 D   2      22.771   6.018 -48.8970  0.00  0.00     0.000 O
BRANCH 22 26
ATOM     23  C1  GU1 D   2      21.256   6.017 -52.7290  0.00  0.00     0.000 C
ATOM     24  C2  GU1 D   2      20.951   7.269 -51.9200  0.00  0.00     0.000 C
ATOM     25  C3  GU1 D   2      21.854   7.320 -50.7220  0.00  0.00     0.000 C
ATOM     26  C4  GU1 D   2      21.771   6.027 -49.9240  0.00  0.00     0.000 C
ATOM     27  C5  GU1 D   2      21.990   4.825 -50.8480  0.00  0.00     0.000 C
ATOM     28  O5  GU1 D   2      21.064   4.855 -51.9310  0.00  0.00     0.000 O
ATOM     29   O  GU1 D   2      21.154   8.455 -52.6800  0.00  0.00     0.000 O
ATOM     30   C  GU1 D   2      19.966   8.976 -53.2610  0.00  0.00     0.000 C
ATOM     31   C  GU1 D   2      22.239   9.575 -49.9740  0.00  0.00     0.000 C
ATOM     32   O  GU1 D   2      21.434   8.402 -49.8850  0.00  0.00     0.000 O
BRANCH 27 33
ATOM     33   C  GU1 D   2      21.794   3.524 -50.1070  0.00  0.00     0.000 C
ATOM     34   O  GU1 D   2      20.660   3.152 -49.8830  0.00  0.00     0.000 OA
ATOM     35   O  GU1 D   2      22.756   2.863 -49.7480  0.00  0.00     0.000 O
ENDBRANCH 27 33
BRANCH 23 36
ATOM     36  O4  GU6 D   3      20.368   5.609 -53.7880  0.00  0.00     0.000 O
BRANCH 36 40
ATOM     37  C1  GU6 D   3      17.478   5.506 -56.6740  0.00  0.00     0.000 C
ATOM     38  C2  GU6 D   3      17.811   4.141 -56.0830  0.00  0.00     0.000 C
ATOM     39  C3  GU6 D   3      18.671   4.318 -54.8590  0.00  0.00     0.000 C
ATOM     40  C4  GU6 D   3      19.205   5.657 -54.5890  0.00  0.00     0.000 C
ATOM     41  C5  GU6 D   3      19.601   6.344 -55.9370  0.00  0.00     0.000 C
ATOM     42  O5  GU6 D   3      18.691   6.154 -57.0260  0.00  0.00     0.000 O
BRANCH 38 43
ATOM     43   O  GU6 D   3      16.628   3.444 -55.7450  0.00  0.00     0.000 O
ATOM     44   S  GU6 D   3      16.353   2.216 -56.6040  0.00  0.00     0.000 S
ATOM     45   O  GU6 D   3      15.726   2.656 -57.8620  0.00  0.00     0.000 OA
ATOM     46   O  GU6 D   3      17.636   1.554 -56.9010  0.00  0.00     0.000 O
ATOM     47   O  GU6 D   3      15.482   1.309 -55.8640  0.00  0.00     0.000 OA
ENDBRANCH 38 43
BRANCH 39 48
ATOM     48   O  GU6 D   3      18.769   3.295 -53.8860  0.00  0.00     0.000 O
ATOM     49   S  GU6 D   3      17.928   3.048 -52.6350  0.00  0.00     0.000 S
ATOM     50   O  GU6 D   3      16.507   2.958 -52.9900  0.00  0.00     0.000 OA
ATOM     51   O  GU6 D   3      18.435   1.760 -52.1420  0.00  0.00     0.000 OA
ATOM     52   O  GU6 D   3      18.144   4.162 -51.6850  0.00  0.00     0.000 O
ENDBRANCH 39 48
BRANCH 41 53
ATOM     53   C  GU6 D   3      20.803   7.195 -56.2500  0.00  0.00     0.000 C
ATOM     54   O  GU6 D   3      20.143   8.430 -56.3440  0.00  0.00     0.000 O
ATOM     55   S  GU6 D   3      20.907   9.690 -56.7730  0.00  0.00     0.000 S
ATOM     56   O  GU6 D   3      21.316   9.483 -58.1810  0.00  0.00     0.000 O
ATOM     57   O  GU6 D   3      20.006  10.846 -56.6570  0.00  0.00     0.000 OA
ATOM     58   O  GU6 D   3      22.087   9.810 -55.8880  0.00  0.00     0.000 OA
ENDBRANCH 41 53
BRANCH 37 59
ATOM     59  O4  Z9K D   4      16.628   6.493 -56.0530  0.00  0.00     0.000 O
BRANCH 59 63
ATOM     60  C1  Z9K D   4      13.011   4.963 -55.9090  0.00  0.00     0.000 C
ATOM     61  C2  Z9K D   4      13.027   5.563 -57.3420  0.00  0.00     0.000 C
ATOM     62  C3  Z9K D   4      14.547   6.016 -57.4630  0.00  0.00     0.000 C
ATOM     63  C4  Z9K D   4      15.216   6.786 -56.2610  0.00  0.00     0.000 C
ATOM     64  C5  Z9K D   4      14.617   6.520 -54.8720  0.00  0.00     0.000 C
ATOM     65  O5  Z9K D   4      14.173   5.141 -54.9710  0.00  0.00     0.000 O
ATOM     66   O  Z9K D   4      14.807   6.834 -58.6170  0.00  0.00     0.000 O
ATOM     67   C  Z9K D   4      15.073   6.105 -59.8040  0.00  0.00     0.000 C
BRANCH 61 68
ATOM     68   O  Z9K D   4      12.862   4.497 -58.2370  0.00  0.00     0.000 O
ATOM     69   O  Z9K D   4      11.886   6.664 -59.1880  0.00  0.00     0.000 OA
ATOM     70   S  Z9K D   4      11.567   5.414 -58.5660  0.00  0.00     0.000 S
ATOM     71   O  Z9K D   4      10.584   5.215 -57.5460  0.00  0.00     0.000 OA
ATOM     72   O  Z9K D   4      11.462   4.374 -59.5370  0.00  0.00     0.000 OA
ENDBRANCH 61 68
BRANCH 64 73
ATOM     73   C  Z9K D   4      15.619   6.898 -53.7600  0.00  0.00     0.000 C
ATOM     74   O  Z9K D   4      15.983   6.055 -52.8910  0.00  0.00     0.000 O
ATOM     75   O  Z9K D   4      16.113   8.049 -53.6800  0.00  0.00     0.000 OA
ENDBRANCH 64 73
BRANCH 60 76
ATOM     76  O4  Z9L D   5      12.013   5.119 -54.8860  0.00  0.00     0.000 O
BRANCH 76 80
ATOM     77  C1  Z9L D   5       9.640   3.190 -52.3130  0.00  0.00     0.000 C
ATOM     78  C2  Z9L D   5      10.717   3.999 -51.4420  0.00  0.00     0.000 C
ATOM     79  C3  Z9L D   5      11.407   5.151 -52.4720  0.00  0.00     0.000 C
ATOM     80  C4  Z9L D   5      11.609   4.265 -53.8460  0.00  0.00     0.000 C
ATOM     81  C5  Z9L D   5      10.605   3.262 -54.6110  0.00  0.00     0.000 C
ATOM     82  O5  Z9L D   5       9.943   2.498 -53.5920  0.00  0.00     0.000 O
ATOM     83   C  Z9L D   5       7.417   3.432 -53.2570  0.00  0.00     0.000 C
ATOM     84   C  Z9L D   5       7.417   3.432 -53.2570  0.00  0.00     0.000 C
BRANCH 78 85
ATOM     85   O  Z9L D   5      10.041   4.651 -50.4160  0.00  0.00     0.000 O
ATOM     86   O  Z9L D   5      10.157   4.193 -48.5480  0.00  0.00     0.000 OA
ATOM     87   S  Z9L D   5      10.944   3.609 -49.5910  0.00  0.00     0.000 S
ATOM     88   O  Z9L D   5      12.289   4.070 -49.3480  0.00  0.00     0.000 OA
ATOM     89   O  Z9L D   5      10.544   2.245 -49.6420  0.00  0.00     0.000 OA
ENDBRANCH 78 85
BRANCH 79 90
ATOM     90   O  Z9L D   5      12.717   5.440 -52.1020  0.00  0.00     0.000 O
ATOM     91   S  Z9L D   5      12.064   6.881 -51.9190  0.00  0.00     0.000 S
ATOM     92   O  Z9L D   5      10.926   7.108 -51.0680  0.00  0.00     0.000 OA
ATOM     93   O  Z9L D   5      12.252   7.648 -53.1260  0.00  0.00     0.000 O
ATOM     94   O  Z9L D   5      13.232   7.060 -51.1190  0.00  0.00     0.000 OA
ENDBRANCH 79 90
BRANCH 81 95
ATOM     95   C  Z9L D   5      11.201   2.453 -55.9540  0.00  0.00     0.000 C
ATOM     96   S  Z9L D   5      11.770   0.683 -56.6670  0.00  0.00     0.000 S
ATOM     97   O  Z9L D   5      11.871   1.422 -55.2800  0.00  0.00     0.000 O
ATOM     98   O  Z9L D   5      12.705   1.330 -57.5510  0.00  0.00     0.000 OA
ATOM     99   O  Z9L D   5      10.454   0.348 -57.0960  0.00  0.00     0.000 OA
ATOM    100   O  Z9L D   5      12.474  -0.336 -55.9270  0.00  0.00     0.000 O
ENDBRANCH 81 95
ENDBRANCH 76 80
ENDBRANCH 60 76
ENDBRANCH 59 63
ENDBRANCH 37 59
ENDBRANCH 36 40
ENDBRANCH 23 36
ENDBRANCH 22 26
ENDBRANCH 1 22
TORSDOF 19
ENDMDL
MODEL 11
REMARK VINA RESULT:      -6.8     30.052     34.932
ROOT
ATOM      1  C1  Z9H D   1       2.398  43.811 -14.6400  0.00  0.00     0.000 C
ATOM      2  C2  Z9H D   1       1.276  44.314 -13.7000  0.00  0.00     0.000 C
ATOM      3  C3  Z9H D   1       1.630  45.832 -13.7250  0.00  0.00     0.000 C
ATOM      4  C4  Z9H D   1       3.148  46.181 -13.4320  0.00  0.00     0.000 C
ATOM      5  C5  Z9H D   1       4.355  45.439 -14.1310  0.00  0.00     0.000 C
ATOM      6  O5  Z9H D   1       3.790  44.123 -14.3580  0.00  0.00     0.000 O
ATOM      7   O  Z9H D   1       0.772  46.587 -12.8660  0.00  0.00     0.000 O
ATOM      8   C  Z9H D   1      -0.326  47.247 -13.5180  0.00  0.00     0.000 C
ATOM      9   O  Z9H D   1       3.288  47.577 -13.7180  0.00  0.00     0.000 O
ATOM     10   C  Z9H D   1       3.251  48.446 -12.5820  0.00  0.00     0.000 C
ENDROOT
BRANCH 2 11
ATOM     11   O  Z9H D   1       0.138  44.190 -14.5110  0.00  0.00     0.000 O
ATOM     12   O  Z9H D   1      -1.272  42.981 -14.1820  0.00  0.00     0.000 OA
ATOM     13   S  Z9H D   1      -0.135  43.150 -13.3420  0.00  0.00     0.000 S
ATOM     14   O  Z9H D   1      -0.406  43.885 -12.1390  0.00  0.00     0.000 OA
ATOM     15   O  Z9H D   1       0.737  42.001 -13.4350  0.00  0.00     0.000 O
ENDBRANCH 2 11
BRANCH 5 16
ATOM     16   C  Z9H D   1       5.837  45.631 -13.3780  0.00  0.00     0.000 C
ATOM     17   S  Z9H D   1       6.748  46.329 -11.7280  0.00  0.00     0.000 S
ATOM     18   O  Z9H D   1       5.394  45.511 -12.0480  0.00  0.00     0.000 O
ATOM     19   O  Z9H D   1       6.755  47.687 -12.1900  0.00  0.00     0.000 O
ATOM     20   O  Z9H D   1       7.875  45.468 -11.8210  0.00  0.00     0.000 OA
ATOM     21   O  Z9H D   1       6.222  46.218 -10.3990  0.00  0.00     0.000 OA
ENDBRANCH 5 16
BRANCH 1 22
ATOM     22  O4  GU1 D   2       2.295  44.281 -16.0330  0.00  0.00     0.000 O
BRANCH 22 26
ATOM     23  C1  GU1 D   2       2.760  43.242 -19.9920  0.00  0.00     0.000 C
ATOM     24  C2  GU1 D   2       2.220  42.135 -19.1000  0.00  0.00     0.000 C
ATOM     25  C3  GU1 D   2       1.740  42.728 -17.8070  0.00  0.00     0.000 C
ATOM     26  C4  GU1 D   2       2.827  43.576 -17.1610  0.00  0.00     0.000 C
ATOM     27  C5  GU1 D   2       3.374  44.587 -18.1720  0.00  0.00     0.000 C
ATOM     28  O5  GU1 D   2       3.832  43.920 -19.3460  0.00  0.00     0.000 O
ATOM     29   O  GU1 D   2       1.132  41.448 -19.7040  0.00  0.00     0.000 O
ATOM     30   C  GU1 D   2       1.505  40.245 -20.3610  0.00  0.00     0.000 C
ATOM     31   C  GU1 D   2       0.007  41.402 -16.7910  0.00  0.00     0.000 C
ATOM     32   O  GU1 D   2       1.404  41.659 -16.9160  0.00  0.00     0.000 O
BRANCH 27 33
ATOM     33   C  GU1 D   2       4.537  45.361 -17.5970  0.00  0.00     0.000 C
ATOM     34   O  GU1 D   2       5.587  44.779 -17.4190  0.00  0.00     0.000 OA
ATOM     35   O  GU1 D   2       4.419  46.545 -17.3240  0.00  0.00     0.000 O
ENDBRANCH 27 33
BRANCH 23 36
ATOM     36  O4  GU6 D   3       3.503  42.911 -21.1820  0.00  0.00     0.000 O
BRANCH 36 40
ATOM     37  C1  GU6 D   3       4.064  43.542 -25.1800  0.00  0.00     0.000 C
ATOM     38  C2  GU6 D   3       3.933  44.822 -24.3640  0.00  0.00     0.000 C
ATOM     39  C3  GU6 D   3       4.005  44.494 -22.8960  0.00  0.00     0.000 C
ATOM     40  C4  GU6 D   3       3.956  43.079 -22.5100  0.00  0.00     0.000 C
ATOM     41  C5  GU6 D   3       2.955  42.318 -23.4400  0.00  0.00     0.000 C
ATOM     42  O5  GU6 D   3       3.001  42.670 -24.8280  0.00  0.00     0.000 O
BRANCH 38 43
ATOM     43   O  GU6 D   3       4.958  45.736 -24.7050  0.00  0.00     0.000 O
ATOM     44   S  GU6 D   3       4.629  46.636 -25.8900  0.00  0.00     0.000 S
ATOM     45   O  GU6 D   3       4.892  45.889 -27.1320  0.00  0.00     0.000 OA
ATOM     46   O  GU6 D   3       3.201  46.994 -25.8270  0.00  0.00     0.000 O
ATOM     47   O  GU6 D   3       5.451  47.839 -25.8090  0.00  0.00     0.000 OA
ENDBRANCH 38 43
BRANCH 39 48
ATOM     48   O  GU6 D   3       4.339  45.487 -21.9450  0.00  0.00     0.000 O
ATOM     49   S  GU6 D   3       3.565  46.733 -21.5140  0.00  0.00     0.000 S
ATOM     50   O  GU6 D   3       2.219  46.361 -21.0650  0.00  0.00     0.000 OA
ATOM     51   O  GU6 D   3       4.370  47.256 -20.4020  0.00  0.00     0.000 OA
ATOM     52   O  GU6 D   3       3.478  47.664 -22.6610  0.00  0.00     0.000 O
ENDBRANCH 39 48
BRANCH 41 53
ATOM     53   C  GU6 D   3       1.956  41.251 -23.0840  0.00  0.00     0.000 C
ATOM     54   O  GU6 D   3       2.309  40.321 -24.0750  0.00  0.00     0.000 O
ATOM     55   S  GU6 D   3       1.499  39.029 -24.2540  0.00  0.00     0.000 S
ATOM     56   O  GU6 D   3       0.150  39.431 -24.7150  0.00  0.00     0.000 O
ATOM     57   O  GU6 D   3       2.166  38.194 -25.2640  0.00  0.00     0.000 OA
ATOM     58   O  GU6 D   3       1.435  38.365 -22.9330  0.00  0.00     0.000 OA
ENDBRANCH 41 53
BRANCH 37 59
ATOM     59  O4  Z9K D   4       5.261  42.741 -25.2790  0.00  0.00     0.000 O
BRANCH 59 63
ATOM     60  C1  Z9K D   4       6.330  42.786 -29.0610  0.00  0.00     0.000 C
ATOM     61  C2  Z9K D   4       5.309  41.615 -29.0510  0.00  0.00     0.000 C
ATOM     62  C3  Z9K D   4       4.745  41.720 -27.5680  0.00  0.00     0.000 C
ATOM     63  C4  Z9K D   4       5.755  41.915 -26.3740  0.00  0.00     0.000 C
ATOM     64  C5  Z9K D   4       7.088  42.595 -26.7220  0.00  0.00     0.000 C
ATOM     65  O5  Z9K D   4       6.717  43.500 -27.7950  0.00  0.00     0.000 O
ATOM     66   O  Z9K D   4       3.935  40.593 -27.1860  0.00  0.00     0.000 O
ATOM     67   C  Z9K D   4       2.573  40.695 -27.5660  0.00  0.00     0.000 C
BRANCH 61 68
ATOM     68   O  Z9K D   4       4.256  41.980 -29.9000  0.00  0.00     0.000 O
ATOM     69   O  Z9K D   4       4.647  39.452 -29.9460  0.00  0.00     0.000 OA
ATOM     70   S  Z9K D   4       4.857  40.679 -30.6530  0.00  0.00     0.000 S
ATOM     71   O  Z9K D   4       6.054  41.051 -31.3440  0.00  0.00     0.000 OA
ATOM     72   O  Z9K D   4       3.724  41.003 -31.4580  0.00  0.00     0.000 OA
ENDBRANCH 61 68
BRANCH 64 73
ATOM     73   C  Z9K D   4       7.755  43.177 -25.4580  0.00  0.00     0.000 C
ATOM     74   O  Z9K D   4       7.852  44.426 -25.2840  0.00  0.00     0.000 O
ATOM     75   O  Z9K D   4       8.217  42.438 -24.5540  0.00  0.00     0.000 OA
ENDBRANCH 64 73
BRANCH 60 76
ATOM     76  O4  Z9L D   5       7.657  42.811 -29.6160  0.00  0.00     0.000 O
BRANCH 76 80
ATOM     77  C1  Z9L D   5      10.538  45.154 -31.0910  0.00  0.00     0.000 C
ATOM     78  C2  Z9L D   5      11.085  44.550 -29.7100  0.00  0.00     0.000 C
ATOM     79  C3  Z9L D   5      10.093  43.235 -29.3280  0.00  0.00     0.000 C
ATOM     80  C4  Z9L D   5       8.607  43.842 -29.7010  0.00  0.00     0.000 C
ATOM     81  C5  Z9L D   5       8.096  44.658 -30.9950  0.00  0.00     0.000 C
ATOM     82  O5  Z9L D   5       9.138  45.591 -31.3200  0.00  0.00     0.000 O
ATOM     83   C  Z9L D   5      10.521  44.690 -33.4740  0.00  0.00     0.000 C
ATOM     84   C  Z9L D   5      10.521  44.690 -33.4740  0.00  0.00     0.000 C
BRANCH 78 85
ATOM     85   O  Z9L D   5      12.384  44.096 -29.9210  0.00  0.00     0.000 O
ATOM     86   O  Z9L D   5      13.958  44.811 -29.0730  0.00  0.00     0.000 OA
ATOM     87   S  Z9L D   5      12.613  45.189 -28.7660  0.00  0.00     0.000 S
ATOM     88   O  Z9L D   5      12.377  44.686 -27.4350  0.00  0.00     0.000 OA
ATOM     89   O  Z9L D   5      12.509  46.553 -29.1550  0.00  0.00     0.000 OA
ENDBRANCH 78 85
BRANCH 79 90
ATOM     90   O  Z9L D   5      10.006  43.048 -27.9510  0.00  0.00     0.000 O
ATOM     91   S  Z9L D   5      10.434  41.579 -28.3940  0.00  0.00     0.000 S
ATOM     92   O  Z9L D   5      11.625  41.322 -29.1610  0.00  0.00     0.000 OA
ATOM     93   O  Z9L D   5       9.254  40.768 -28.5610  0.00  0.00     0.000 O
ATOM     94   O  Z9L D   5      10.798  41.515 -27.0150  0.00  0.00     0.000 OA
ENDBRANCH 79 90
BRANCH 81 95
ATOM     95   C  Z9L D   5       6.510  45.203 -30.9830  0.00  0.00     0.000 C
ATOM     96   S  Z9L D   5       5.337  46.789 -30.7060  0.00  0.00     0.000 S
ATOM     97   O  Z9L D   5       6.670  46.250 -30.0640  0.00  0.00     0.000 O
ATOM     98   O  Z9L D   5       4.277  45.932 -30.2410  0.00  0.00     0.000 OA
ATOM     99   O  Z9L D   5       5.424  47.186 -32.0710  0.00  0.00     0.000 OA
ATOM    100   O  Z9L D   5       5.545  47.829 -29.7290  0.00  0.00     0.000 O
ENDBRANCH 81 95
ENDBRANCH 76 80
ENDBRANCH 60 76
ENDBRANCH 59 63
ENDBRANCH 37 59
ENDBRANCH 36 40
ENDBRANCH 23 36
ENDBRANCH 22 26
ENDBRANCH 1 22
TORSDOF 19
ENDMDL
MODEL 12
REMARK VINA RESULT:      -6.7     30.059     37.590
ROOT
ATOM      1  C1  Z9H D   1       7.760  42.242 -27.5320  0.00  0.00     0.000 C
ATOM      2  C2  Z9H D   1       8.777  42.690 -28.6090  0.00  0.00     0.000 C
ATOM      3  C3  Z9H D   1       7.763  43.255 -29.6500  0.00  0.00     0.000 C
ATOM      4  C4  Z9H D   1       6.562  42.290 -30.0220  0.00  0.00     0.000 C
ATOM      5  C5  Z9H D   1       5.699  41.526 -28.9400  0.00  0.00     0.000 C
ATOM      6  O5  Z9H D   1       6.668  41.344 -27.8770  0.00  0.00     0.000 O
ATOM      7   O  Z9H D   1       8.422  43.708 -30.8340  0.00  0.00     0.000 O
ATOM      8   C  Z9H D   1       8.660  45.124 -30.9030  0.00  0.00     0.000 C
ATOM      9   O  Z9H D   1       5.658  43.077 -30.8040  0.00  0.00     0.000 O
ATOM     10   C  Z9H D   1       5.754  42.903 -32.2210  0.00  0.00     0.000 C
ENDROOT
BRANCH 2 11
ATOM     11   O  Z9H D   1       9.356  43.820 -28.0110  0.00  0.00     0.000 O
ATOM     12   O  Z9H D   1      11.156  43.919 -27.4550  0.00  0.00     0.000 OA
ATOM     13   S  Z9H D   1      10.568  42.797 -28.1050  0.00  0.00     0.000 S
ATOM     14   O  Z9H D   1      10.941  42.664 -29.4850  0.00  0.00     0.000 OA
ATOM     15   O  Z9H D   1      10.414  41.700 -27.1770  0.00  0.00     0.000 O
ENDBRANCH 2 11
BRANCH 5 16
ATOM     16   C  Z9H D   1       4.800  40.243 -29.5270  0.00  0.00     0.000 C
ATOM     17   S  Z9H D   1       4.897  38.524 -30.5630  0.00  0.00     0.000 S
ATOM     18   O  Z9H D   1       5.796  39.254 -29.4390  0.00  0.00     0.000 O
ATOM     19   O  Z9H D   1       4.876  39.181 -31.8390  0.00  0.00     0.000 O
ATOM     20   O  Z9H D   1       3.745  37.942 -29.9680  0.00  0.00     0.000 OA
ATOM     21   O  Z9H D   1       5.966  37.574 -30.4660  0.00  0.00     0.000 OA
ENDBRANCH 5 16
BRANCH 1 22
ATOM     22  O4  GU1 D   2       7.013  43.339 -26.8920  0.00  0.00     0.000 O
BRANCH 22 26
ATOM     23  C1  GU1 D   2       5.202  44.439 -23.3590  0.00  0.00     0.000 C
ATOM     24  C2  GU1 D   2       6.247  43.342 -23.2270  0.00  0.00     0.000 C
ATOM     25  C3  GU1 D   2       7.086  43.302 -24.4710  0.00  0.00     0.000 C
ATOM     26  C4  GU1 D   2       6.213  43.186 -25.7130  0.00  0.00     0.000 C
ATOM     27  C5  GU1 D   2       5.131  44.270 -25.6960  0.00  0.00     0.000 C
ATOM     28  O5  GU1 D   2       4.374  44.200 -24.4910  0.00  0.00     0.000 O
ATOM     29   O  GU1 D   2       7.109  43.558 -22.1160  0.00  0.00     0.000 O
ATOM     30   C  GU1 D   2       6.732  42.843 -20.9480  0.00  0.00     0.000 C
ATOM     31   C  GU1 D   2       9.292  42.437 -24.0480  0.00  0.00     0.000 C
ATOM     32   O  GU1 D   2       7.941  42.156 -24.4040  0.00  0.00     0.000 O
BRANCH 27 33
ATOM     33   C  GU1 D   2       4.176  44.106 -26.8540  0.00  0.00     0.000 C
ATOM     34   O  GU1 D   2       3.392  43.180 -26.8290  0.00  0.00     0.000 OA
ATOM     35   O  GU1 D   2       4.192  44.892 -27.7890  0.00  0.00     0.000 O
ENDBRANCH 27 33
BRANCH 23 36
ATOM     36  O4  GU6 D   3       4.120  44.522 -22.4100  0.00  0.00     0.000 O
BRANCH 36 40
ATOM     37  C1  GU6 D   3       2.770  43.675 -18.6480  0.00  0.00     0.000 C
ATOM     38  C2  GU6 D   3       4.159  44.299 -18.6800  0.00  0.00     0.000 C
ATOM     39  C3  GU6 D   3       4.447  44.818 -20.0650  0.00  0.00     0.000 C
ATOM     40  C4  GU6 D   3       3.512  44.457 -21.1360  0.00  0.00     0.000 C
ATOM     41  C5  GU6 D   3       3.025  42.985 -20.9310  0.00  0.00     0.000 C
ATOM     42  O5  GU6 D   3       2.732  42.607 -19.5810  0.00  0.00     0.000 O
BRANCH 38 43
ATOM     43   O  GU6 D   3       4.254  45.353 -17.7410  0.00  0.00     0.000 O
ATOM     44   S  GU6 D   3       5.186  45.070 -16.5700  0.00  0.00     0.000 S
ATOM     45   O  GU6 D   3       4.459  44.260 -15.5780  0.00  0.00     0.000 OA
ATOM     46   O  GU6 D   3       6.348  44.310 -17.0660  0.00  0.00     0.000 O
ATOM     47   O  GU6 D   3       5.625  46.340 -16.0010  0.00  0.00     0.000 OA
ENDBRANCH 38 43
BRANCH 39 48
ATOM     48   O  GU6 D   3       5.443  45.800 -20.2800  0.00  0.00     0.000 O
ATOM     49   S  GU6 D   3       5.317  47.321 -20.3660  0.00  0.00     0.000 S
ATOM     50   O  GU6 D   3       4.668  47.843 -19.1580  0.00  0.00     0.000 OA
ATOM     51   O  GU6 D   3       6.715  47.766 -20.4520  0.00  0.00     0.000 OA
ATOM     52   O  GU6 D   3       4.518  47.670 -21.5620  0.00  0.00     0.000 O
ENDBRANCH 39 48
BRANCH 41 53
ATOM     53   C  GU6 D   3       2.804  41.908 -21.9590  0.00  0.00     0.000 C
ATOM     54   O  GU6 D   3       2.357  40.902 -21.0880  0.00  0.00     0.000 O
ATOM     55   S  GU6 D   3       2.079  39.486 -21.6110  0.00  0.00     0.000 S
ATOM     56   O  GU6 D   3       3.382  38.926 -22.0400  0.00  0.00     0.000 O
ATOM     57   O  GU6 D   3       1.504  38.687 -20.5190  0.00  0.00     0.000 OA
ATOM     58   O  GU6 D   3       1.153  39.616 -22.7580  0.00  0.00     0.000 OA
ENDBRANCH 41 53
BRANCH 37 59
ATOM     59  O4  Z9K D   4       1.531  44.404 -18.7790  0.00  0.00     0.000 O
BRANCH 59 63
ATOM     60  C1  Z9K D   4       1.229  46.689 -15.5960  0.00  0.00     0.000 C
ATOM     61  C2  Z9K D   4       0.623  45.359 -15.0690  0.00  0.00     0.000 C
ATOM     62  C3  Z9K D   4       0.915  44.389 -16.2950  0.00  0.00     0.000 C
ATOM     63  C4  Z9K D   4       0.609  44.888 -17.7590  0.00  0.00     0.000 C
ATOM     64  C5  Z9K D   4       0.649  46.408 -17.9750  0.00  0.00     0.000 C
ATOM     65  O5  Z9K D   4       1.660  46.843 -17.0290  0.00  0.00     0.000 O
ATOM     66   O  Z9K D   4       0.244  43.121 -16.1890  0.00  0.00     0.000 O
ATOM     67   C  Z9K D   4       0.945  42.149 -15.4300  0.00  0.00     0.000 C
BRANCH 61 68
ATOM     68   O  Z9K D   4       1.441  44.922 -14.0180  0.00  0.00     0.000 O
ATOM     69   O  Z9K D   4      -0.988  44.196 -13.6660  0.00  0.00     0.000 OA
ATOM     70   S  Z9K D   4       0.020  45.134 -13.2710  0.00  0.00     0.000 S
ATOM     71   O  Z9K D   4      -0.183  46.533 -13.0440  0.00  0.00     0.000 OA
ATOM     72   O  Z9K D   4       0.836  44.598 -12.2310  0.00  0.00     0.000 OA
ENDBRANCH 61 68
BRANCH 64 73
ATOM     73   C  Z9K D   4       0.837  46.745 -19.4700  0.00  0.00     0.000 C
ATOM     74   O  Z9K D   4       1.813  47.447 -19.8650  0.00  0.00     0.000 O
ATOM     75   O  Z9K D   4       0.039  46.333 -20.3470  0.00  0.00     0.000 OA
ENDBRANCH 64 73
BRANCH 60 76
ATOM     76  O4  Z9L D   5       0.691  48.019 -15.4960  0.00  0.00     0.000 O
BRANCH 76 80
ATOM     77  C1  Z9L D   5       1.487  51.823 -14.5650  0.00  0.00     0.000 C
ATOM     78  C2  Z9L D   5       1.237  51.769 -16.1480  0.00  0.00     0.000 C
ATOM     79  C3  Z9L D   5       0.464  50.299 -16.4680  0.00  0.00     0.000 C
ATOM     80  C4  Z9L D   5       1.316  49.276 -15.4980  0.00  0.00     0.000 C
ATOM     81  C5  Z9L D   5       1.776  49.421 -13.9590  0.00  0.00     0.000 C
ATOM     82  O5  Z9L D   5       2.209  50.779 -13.7930  0.00  0.00     0.000 O
ATOM     83   C  Z9L D   5       0.296  52.187 -12.4810  0.00  0.00     0.000 C
ATOM     84   C  Z9L D   5       0.296  52.187 -12.4810  0.00  0.00     0.000 C
BRANCH 78 85
ATOM     85   O  Z9L D   5       0.385  52.816 -16.4860  0.00  0.00     0.000 O
ATOM     86   O  Z9L D   5       0.891  54.370 -17.5050  0.00  0.00     0.000 OA
ATOM     87   S  Z9L D   5       1.728  53.235 -17.2630  0.00  0.00     0.000 S
ATOM     88   O  Z9L D   5       1.878  52.600 -18.5480  0.00  0.00     0.000 OA
ATOM     89   O  Z9L D   5       2.797  53.722 -16.4610  0.00  0.00     0.000 OA
ENDBRANCH 78 85
BRANCH 79 90
ATOM     90   O  Z9L D   5       0.770  49.833 -17.7430  0.00  0.00     0.000 O
ATOM     91   S  Z9L D   5      -0.808  49.987 -17.8880  0.00  0.00     0.000 S
ATOM     92   O  Z9L D   5      -1.487  51.231 -17.6340  0.00  0.00     0.000 OA
ATOM     93   O  Z9L D   5      -1.440  48.725 -17.5960  0.00  0.00     0.000 O
ATOM     94   O  Z9L D   5      -0.455  49.973 -19.2710  0.00  0.00     0.000 OA
ENDBRANCH 79 90
BRANCH 81 95
ATOM     95   C  Z9L D   5       2.727  48.195 -13.3220  0.00  0.00     0.000 C
ATOM     96   S  Z9L D   5       4.574  47.687 -12.7750  0.00  0.00     0.000 S
ATOM     97   O  Z9L D   5       3.940  48.556 -13.9260  0.00  0.00     0.000 O
ATOM     98   O  Z9L D   5       4.298  46.310 -13.0960  0.00  0.00     0.000 OA
ATOM     99   O  Z9L D   5       4.402  48.189 -11.4540  0.00  0.00     0.000 OA
ATOM    100   O  Z9L D   5       5.788  48.077 -13.4480  0.00  0.00     0.000 O
ENDBRANCH 81 95
ENDBRANCH 76 80
ENDBRANCH 60 76
ENDBRANCH 59 63
ENDBRANCH 37 59
ENDBRANCH 36 40
ENDBRANCH 23 36
ENDBRANCH 22 26
ENDBRANCH 1 22
TORSDOF 19
ENDMDL
MODEL 13
REMARK VINA RESULT:      -6.7     22.364     28.284
ROOT
ATOM      1  C1  Z9H D   1      26.246   6.644 -39.0470  0.00  0.00     0.000 C
ATOM      2  C2  Z9H D   1      27.474   7.466 -39.5050  0.00  0.00     0.000 C
ATOM      3  C3  Z9H D   1      27.044   7.702 -40.9850  0.00  0.00     0.000 C
ATOM      4  C4  Z9H D   1      26.597   6.405 -41.7780  0.00  0.00     0.000 C
ATOM      5  C5  Z9H D   1      25.587   5.340 -41.1930  0.00  0.00     0.000 C
ATOM      6  O5  Z9H D   1      25.849   5.446 -39.7710  0.00  0.00     0.000 O
ATOM      7   O  Z9H D   1      28.046   8.411 -41.7170  0.00  0.00     0.000 O
ATOM      8   C  Z9H D   1      27.824   9.825 -41.8530  0.00  0.00     0.000 C
ATOM      9   O  Z9H D   1      26.048   6.875 -43.0140  0.00  0.00     0.000 O
ATOM     10   C  Z9H D   1      26.925   6.815 -44.1420  0.00  0.00     0.000 C
ENDROOT
BRANCH 2 11
ATOM     11   O  Z9H D   1      27.261   8.694 -38.8610  0.00  0.00     0.000 O
ATOM     12   O  Z9H D   1      28.382   9.395 -37.5160  0.00  0.00     0.000 OA
ATOM     13   S  Z9H D   1      28.613   8.174 -38.2110  0.00  0.00     0.000 S
ATOM     14   O  Z9H D   1      29.650   8.255 -39.1990  0.00  0.00     0.000 OA
ATOM     15   O  Z9H D   1      28.385   7.046 -37.3360  0.00  0.00     0.000 O
ENDBRANCH 2 11
BRANCH 5 16
ATOM     16   C  Z9H D   1      25.590   3.858 -41.9700  0.00  0.00     0.000 C
ATOM     17   S  Z9H D   1      26.493   2.768 -43.3980  0.00  0.00     0.000 S
ATOM     18   O  Z9H D   1      26.970   3.785 -42.2380  0.00  0.00     0.000 O
ATOM     19   O  Z9H D   1      25.751   3.377 -44.4640  0.00  0.00     0.000 O
ATOM     20   O  Z9H D   1      26.158   1.506 -42.8370  0.00  0.00     0.000 OA
ATOM     21   O  Z9H D   1      27.903   2.772 -43.6550  0.00  0.00     0.000 OA
ENDBRANCH 5 16
BRANCH 1 22
ATOM     22  O4  GU1 D   2      24.973   7.387 -39.0400  0.00  0.00     0.000 O
BRANCH 22 26
ATOM     23  C1  GU1 D   2      21.442   8.026 -37.0160  0.00  0.00     0.000 C
ATOM     24  C2  GU1 D   2      22.659   7.818 -36.1280  0.00  0.00     0.000 C
ATOM     25  C3  GU1 D   2      23.906   7.981 -36.9480  0.00  0.00     0.000 C
ATOM     26  C4  GU1 D   2      23.870   7.083 -38.1770  0.00  0.00     0.000 C
ATOM     27  C5  GU1 D   2      22.561   7.295 -38.9420  0.00  0.00     0.000 C
ATOM     28  O5  GU1 D   2      21.442   7.086 -38.0840  0.00  0.00     0.000 O
ATOM     29   O  GU1 D   2      22.705   8.756 -35.0590  0.00  0.00     0.000 O
ATOM     30   C  GU1 D   2      22.176   8.261 -33.8370  0.00  0.00     0.000 C
ATOM     31   C  GU1 D   2      25.777   8.701 -35.6170  0.00  0.00     0.000 C
ATOM     32   O  GU1 D   2      25.029   7.608 -36.1420  0.00  0.00     0.000 O
BRANCH 27 33
ATOM     33   C  GU1 D   2      22.442   6.332 -40.1000  0.00  0.00     0.000 C
ATOM     34   O  GU1 D   2      22.493   6.776 -41.2280  0.00  0.00     0.000 OA
ATOM     35   O  GU1 D   2      22.303   5.135 -39.9000  0.00  0.00     0.000 O
ENDBRANCH 27 33
BRANCH 23 36
ATOM     36  O4  GU6 D   3      20.128   7.685 -36.5300  0.00  0.00     0.000 O
BRANCH 36 40
ATOM     37  C1  GU6 D   3      16.691   7.369 -34.3440  0.00  0.00     0.000 C
ATOM     38  C2  GU6 D   3      17.051   6.106 -35.1170  0.00  0.00     0.000 C
ATOM     39  C3  GU6 D   3      18.450   6.228 -35.6610  0.00  0.00     0.000 C
ATOM     40  C4  GU6 D   3      19.106   7.537 -35.5650  0.00  0.00     0.000 C
ATOM     41  C5  GU6 D   3      18.057   8.668 -35.8270  0.00  0.00     0.000 C
ATOM     42  O5  GU6 D   3      16.771   8.478 -35.2270  0.00  0.00     0.000 O
BRANCH 38 43
ATOM     43   O  GU6 D   3      16.954   4.968 -34.2830  0.00  0.00     0.000 O
ATOM     44   S  GU6 D   3      15.573   4.326 -34.2530  0.00  0.00     0.000 S
ATOM     45   O  GU6 D   3      14.727   5.079 -33.3110  0.00  0.00     0.000 OA
ATOM     46   O  GU6 D   3      14.989   4.401 -35.6040  0.00  0.00     0.000 O
ATOM     47   O  GU6 D   3      15.712   2.931 -33.8450  0.00  0.00     0.000 OA
ENDBRANCH 38 43
BRANCH 39 48
ATOM     48   O  GU6 D   3      19.188   5.080 -36.0320  0.00  0.00     0.000 O
ATOM     49   S  GU6 D   3      19.036   4.168 -37.2490  0.00  0.00     0.000 S
ATOM     50   O  GU6 D   3      19.110   4.957 -38.4840  0.00  0.00     0.000 OA
ATOM     51   O  GU6 D   3      20.185   3.260 -37.1300  0.00  0.00     0.000 OA
ATOM     52   O  GU6 D   3      17.732   3.474 -37.1690  0.00  0.00     0.000 O
ENDBRANCH 39 48
BRANCH 41 53
ATOM     53   C  GU6 D   3      18.214   9.942 -36.6130  0.00  0.00     0.000 C
ATOM     54   O  GU6 D   3      16.886  10.059 -37.0530  0.00  0.00     0.000 O
ATOM     55   S  GU6 D   3      16.485  11.174 -38.0280  0.00  0.00     0.000 S
ATOM     56   O  GU6 D   3      17.179  10.894 -39.3060  0.00  0.00     0.000 O
ATOM     57   O  GU6 D   3      15.026  11.136 -38.2090  0.00  0.00     0.000 OA
ATOM     58   O  GU6 D   3      16.943  12.455 -37.4430  0.00  0.00     0.000 OA
ENDBRANCH 41 53
BRANCH 37 59
ATOM     59  O4  Z9K D   4      17.286   7.772 -33.0930  0.00  0.00     0.000 O
BRANCH 59 63
ATOM     60  C1  Z9K D   4      15.171   6.707 -29.9560  0.00  0.00     0.000 C
ATOM     61  C2  Z9K D   4      14.337   7.904 -30.4890  0.00  0.00     0.000 C
ATOM     62  C3  Z9K D   4      15.090   8.212 -31.8550  0.00  0.00     0.000 C
ATOM     63  C4  Z9K D   4      16.666   8.262 -31.8680  0.00  0.00     0.000 C
ATOM     64  C5  Z9K D   4      17.376   7.435 -30.7860  0.00  0.00     0.000 C
ATOM     65  O5  Z9K D   4      16.475   6.313 -30.5950  0.00  0.00     0.000 O
ATOM     66   O  Z9K D   4      14.676   9.447 -32.4670  0.00  0.00     0.000 O
ATOM     67   C  Z9K D   4      13.524   9.337 -33.2860  0.00  0.00     0.000 C
BRANCH 61 68
ATOM     68   O  Z9K D   4      13.076   7.402 -30.8400  0.00  0.00     0.000 O
ATOM     69   O  Z9K D   4      12.909   9.805 -29.9730  0.00  0.00     0.000 OA
ATOM     70   S  Z9K D   4      12.707   8.426 -29.6400  0.00  0.00     0.000 S
ATOM     71   O  Z9K D   4      13.029   7.813 -28.3880  0.00  0.00     0.000 OA
ATOM     72   O  Z9K D   4      11.421   7.981 -30.0700  0.00  0.00     0.000 OA
ENDBRANCH 61 68
BRANCH 64 73
ATOM     73   C  Z9K D   4      18.840   7.151 -31.1850  0.00  0.00     0.000 C
ATOM     74   O  Z9K D   4      19.197   6.010 -31.6010  0.00  0.00     0.000 O
ATOM     75   O  Z9K D   4      19.727   8.036 -31.1190  0.00  0.00     0.000 OA
ENDBRANCH 64 73
BRANCH 60 76
ATOM     76  O4  Z9L D   5      15.624   6.459 -28.6140  0.00  0.00     0.000 O
BRANCH 76 80
ATOM     77  C1  Z9L D   5      15.817   3.649 -25.7780  0.00  0.00     0.000 C
ATOM     78  C2  Z9L D   5      17.324   4.094 -26.1030  0.00  0.00     0.000 C
ATOM     79  C3  Z9L D   5      17.228   5.564 -26.9340  0.00  0.00     0.000 C
ATOM     80  C4  Z9L D   5      15.971   5.268 -27.9560  0.00  0.00     0.000 C
ATOM     81  C5  Z9L D   5      14.526   4.605 -27.6860  0.00  0.00     0.000 C
ATOM     82  O5  Z9L D   5      14.748   3.499 -26.7980  0.00  0.00     0.000 O
ATOM     83   C  Z9L D   5      13.976   4.180 -24.2880  0.00  0.00     0.000 C
ATOM     84   C  Z9L D   5      13.976   4.180 -24.2880  0.00  0.00     0.000 C
BRANCH 78 85
ATOM     85   O  Z9L D   5      17.984   4.295 -24.8940  0.00  0.00     0.000 O
ATOM     86   O  Z9L D   5      19.410   3.192 -24.2160  0.00  0.00     0.000 OA
ATOM     87   S  Z9L D   5      18.815   3.065 -25.5110  0.00  0.00     0.000 S
ATOM     88   O  Z9L D   5      19.845   3.465 -26.4370  0.00  0.00     0.000 OA
ATOM     89   O  Z9L D   5      18.169   1.797 -25.5030  0.00  0.00     0.000 OA
ENDBRANCH 78 85
BRANCH 79 90
ATOM     90   O  Z9L D   5      18.299   5.722 -27.8090  0.00  0.00     0.000 O
ATOM     91   S  Z9L D   5      18.488   7.028 -26.9170  0.00  0.00     0.000 S
ATOM     92   O  Z9L D   5      18.628   6.970 -25.4860  0.00  0.00     0.000 OA
ATOM     93   O  Z9L D   5      17.826   8.140 -27.5530  0.00  0.00     0.000 O
ATOM     94   O  Z9L D   5      19.799   6.944 -27.4740  0.00  0.00     0.000 OA
ENDBRANCH 79 90
BRANCH 81 95
ATOM     95   C  Z9L D   5      13.524   4.377 -29.0110  0.00  0.00     0.000 C
ATOM     96   S  Z9L D   5      11.862   3.491 -29.6610  0.00  0.00     0.000 S
ATOM     97   O  Z9L D   5      13.019   3.117 -28.6600  0.00  0.00     0.000 O
ATOM     98   O  Z9L D   5      12.418   3.405 -30.9870  0.00  0.00     0.000 OA
ATOM     99   O  Z9L D   5      11.037   4.585 -29.2720  0.00  0.00     0.000 OA
ATOM    100   O  Z9L D   5      11.401   2.181 -29.2740  0.00  0.00     0.000 O
ENDBRANCH 81 95
ENDBRANCH 76 80
ENDBRANCH 60 76
ENDBRANCH 59 63
ENDBRANCH 37 59
ENDBRANCH 36 40
ENDBRANCH 23 36
ENDBRANCH 22 26
ENDBRANCH 1 22
TORSDOF 19
ENDMDL
MODEL 14
REMARK VINA RESULT:      -6.6      3.861     11.409
ROOT
ATOM      1  C1  Z9H D   1      33.347  27.904 -26.3840  0.00  0.00     0.000 C
ATOM      2  C2  Z9H D   1      34.100  28.210 -27.7010  0.00  0.00     0.000 C
ATOM      3  C3  Z9H D   1      34.649  29.619 -27.3210  0.00  0.00     0.000 C
ATOM      4  C4  Z9H D   1      33.575  30.635 -26.7490  0.00  0.00     0.000 C
ATOM      5  C5  Z9H D   1      32.536  30.250 -25.6210  0.00  0.00     0.000 C
ATOM      6  O5  Z9H D   1      32.352  28.833 -25.8720  0.00  0.00     0.000 O
ATOM      7   O  Z9H D   1      35.367  30.214 -28.4040  0.00  0.00     0.000 O
ATOM      8   C  Z9H D   1      36.797  30.087 -28.3370  0.00  0.00     0.000 C
ATOM      9   O  Z9H D   1      34.319  31.760 -26.2720  0.00  0.00     0.000 O
ATOM     10   C  Z9H D   1      34.372  32.885 -27.1540  0.00  0.00     0.000 C
ENDROOT
BRANCH 2 11
ATOM     11   O  Z9H D   1      35.206  27.351 -27.6110  0.00  0.00     0.000 O
ATOM     12   O  Z9H D   1      35.522  25.904 -28.7790  0.00  0.00     0.000 OA
ATOM     13   S  Z9H D   1      34.430  26.812 -28.8880  0.00  0.00     0.000 S
ATOM     14   O  Z9H D   1      34.578  27.772 -29.9440  0.00  0.00     0.000 OA
ATOM     15   O  Z9H D   1      33.194  26.158 -28.5250  0.00  0.00     0.000 O
ENDBRANCH 2 11
BRANCH 5 16
ATOM     16   C  Z9H D   1      31.230  31.285 -25.4770  0.00  0.00     0.000 C
ATOM     17   S  Z9H D   1      29.346  31.447 -24.7950  0.00  0.00     0.000 S
ATOM     18   O  Z9H D   1      30.718  30.782 -24.2660  0.00  0.00     0.000 O
ATOM     19   O  Z9H D   1      28.773  30.811 -25.9470  0.00  0.00     0.000 O
ATOM     20   O  Z9H D   1      29.386  32.858 -24.6230  0.00  0.00     0.000 OA
ATOM     21   O  Z9H D   1      28.870  30.870 -23.5720  0.00  0.00     0.000 OA
ENDBRANCH 5 16
BRANCH 1 22
ATOM     22  O4  GU1 D   2      34.209  27.754 -25.1990  0.00  0.00     0.000 O
BRANCH 22 26
ATOM     23  C1  GU1 D   2      34.913  25.614 -21.7500  0.00  0.00     0.000 C
ATOM     24  C2  GU1 D   2      34.550  24.771 -22.9620  0.00  0.00     0.000 C
ATOM     25  C3  GU1 D   2      34.695  25.600 -24.2060  0.00  0.00     0.000 C
ATOM     26  C4  GU1 D   2      33.910  26.898 -24.0900  0.00  0.00     0.000 C
ATOM     27  C5  GU1 D   2      34.273  27.617 -22.7870  0.00  0.00     0.000 C
ATOM     28  O5  GU1 D   2      34.069  26.757 -21.6700  0.00  0.00     0.000 O
ATOM     29   O  GU1 D   2      35.389  23.630 -23.0880  0.00  0.00     0.000 O
ATOM     30   C  GU1 D   2      34.829  22.442 -22.5440  0.00  0.00     0.000 C
ATOM     31   C  GU1 D   2      35.173  24.251 -26.1410  0.00  0.00     0.000 C
ATOM     32   O  GU1 D   2      34.181  24.850 -25.3110  0.00  0.00     0.000 O
BRANCH 27 33
ATOM     33   C  GU1 D   2      33.421  28.847 -22.5860  0.00  0.00     0.000 C
ATOM     34   O  GU1 D   2      32.223  28.705 -22.4530  0.00  0.00     0.000 OA
ATOM     35   O  GU1 D   2      33.931  29.957 -22.5550  0.00  0.00     0.000 O
ENDBRANCH 27 33
BRANCH 23 36
ATOM     36  O4  GU6 D   3      34.622  25.132 -20.4230  0.00  0.00     0.000 O
BRANCH 36 40
ATOM     37  C1  GU6 D   3      33.537  24.643 -16.5140  0.00  0.00     0.000 C
ATOM     38  C2  GU6 D   3      35.017  24.946 -16.7120  0.00  0.00     0.000 C
ATOM     39  C3  GU6 D   3      35.259  25.374 -18.1360  0.00  0.00     0.000 C
ATOM     40  C4  GU6 D   3      34.157  25.217 -19.0910  0.00  0.00     0.000 C
ATOM     41  C5  GU6 D   3      33.386  23.890 -18.7860  0.00  0.00     0.000 C
ATOM     42  O5  GU6 D   3      33.167  23.599 -17.4010  0.00  0.00     0.000 O
BRANCH 38 43
ATOM     43   O  GU6 D   3      35.440  25.963 -15.8240  0.00  0.00     0.000 O
ATOM     44   S  GU6 D   3      36.576  25.555 -14.8950  0.00  0.00     0.000 S
ATOM     45   O  GU6 D   3      36.007  24.809 -13.7590  0.00  0.00     0.000 OA
ATOM     46   O  GU6 D   3      37.502  24.682 -15.6390  0.00  0.00     0.000 O
ATOM     47   O  GU6 D   3      37.272  26.757 -14.4470  0.00  0.00     0.000 OA
ENDBRANCH 38 43
BRANCH 39 48
ATOM     48   O  GU6 D   3      36.415  26.111 -18.4870  0.00  0.00     0.000 O
ATOM     49   S  GU6 D   3      36.632  27.623 -18.5500  0.00  0.00     0.000 S
ATOM     50   O  GU6 D   3      36.292  28.236 -17.2610  0.00  0.00     0.000 OA
ATOM     51   O  GU6 D   3      38.070  27.740 -18.8310  0.00  0.00     0.000 OA
ATOM     52   O  GU6 D   3      35.780  28.186 -19.6200  0.00  0.00     0.000 O
ENDBRANCH 39 48
BRANCH 41 53
ATOM     53   C  GU6 D   3      32.827  22.877 -19.7490  0.00  0.00     0.000 C
ATOM     54   O  GU6 D   3      32.611  21.839 -18.8280  0.00  0.00     0.000 O
ATOM     55   S  GU6 D   3      32.130  20.462 -19.3070  0.00  0.00     0.000 S
ATOM     56   O  GU6 D   3      33.223  19.888 -20.1250  0.00  0.00     0.000 O
ATOM     57   O  GU6 D   3      31.866  19.623 -18.1290  0.00  0.00     0.000 OA
ATOM     58   O  GU6 D   3      30.914  20.681 -20.1220  0.00  0.00     0.000 OA
ENDBRANCH 41 53
BRANCH 37 59
ATOM     59  O4  Z9K D   4      32.480  25.625 -16.5410  0.00  0.00     0.000 O
BRANCH 59 63
ATOM     60  C1  Z9K D   4      30.016  28.350 -15.1450  0.00  0.00     0.000 C
ATOM     61  C2  Z9K D   4      30.603  27.772 -13.8270  0.00  0.00     0.000 C
ATOM     62  C3  Z9K D   4      31.728  26.804 -14.3980  0.00  0.00     0.000 C
ATOM     63  C4  Z9K D   4      31.383  25.855 -15.6090  0.00  0.00     0.000 C
ATOM     64  C5  Z9K D   4      30.256  26.330 -16.5380  0.00  0.00     0.000 C
ATOM     65  O5  Z9K D   4      30.383  27.776 -16.4860  0.00  0.00     0.000 O
ATOM     66   O  Z9K D   4      32.293  25.937 -13.3980  0.00  0.00     0.000 O
ATOM     67   C  Z9K D   4      33.357  26.512 -12.6570  0.00  0.00     0.000 C
BRANCH 61 68
ATOM     68   O  Z9K D   4      31.274  28.819 -13.1820  0.00  0.00     0.000 O
ATOM     69   O  Z9K D   4      30.277  27.176 -11.4910  0.00  0.00     0.000 OA
ATOM     70   S  Z9K D   4      30.113  28.456 -12.1130  0.00  0.00     0.000 S
ATOM     71   O  Z9K D   4      28.875  29.014 -12.5630  0.00  0.00     0.000 OA
ATOM     72   O  Z9K D   4      30.863  29.456 -11.4240  0.00  0.00     0.000 OA
ENDBRANCH 61 68
BRANCH 64 73
ATOM     73   C  Z9K D   4      30.343  25.627 -17.9100  0.00  0.00     0.000 C
ATOM     74   O  Z9K D   4      29.998  24.418 -18.0490  0.00  0.00     0.000 O
ATOM     75   O  Z9K D   4      30.750  26.226 -18.9350  0.00  0.00     0.000 OA
ENDBRANCH 64 73
BRANCH 60 76
ATOM     76  O4  Z9L D   5      28.638  28.571 -15.4890  0.00  0.00     0.000 O
BRANCH 76 80
ATOM     77  C1  Z9L D   5      26.176  30.691 -17.8170  0.00  0.00     0.000 C
ATOM     78  C2  Z9L D   5      26.030  29.155 -18.2550  0.00  0.00     0.000 C
ATOM     79  C3  Z9L D   5      26.692  28.228 -17.0040  0.00  0.00     0.000 C
ATOM     80  C4  Z9L D   5      28.043  29.101 -16.6460  0.00  0.00     0.000 C
ATOM     81  C5  Z9L D   5      28.248  30.686 -16.4290  0.00  0.00     0.000 C
ATOM     82  O5  Z9L D   5      27.458  31.336 -17.4350  0.00  0.00     0.000 O
ATOM     83   C  Z9L D   5      25.192  32.323 -16.3140  0.00  0.00     0.000 C
ATOM     84   C  Z9L D   5      25.192  32.323 -16.3140  0.00  0.00     0.000 C
BRANCH 78 85
ATOM     85   O  Z9L D   5      24.674  28.865 -18.3680  0.00  0.00     0.000 O
ATOM     86   O  Z9L D   5      23.770  28.424 -20.0110  0.00  0.00     0.000 OA
ATOM     87   S  Z9L D   5      25.183  28.599 -19.8690  0.00  0.00     0.000 S
ATOM     88   O  Z9L D   5      25.744  27.285 -20.0680  0.00  0.00     0.000 OA
ATOM     89   O  Z9L D   5      25.498  29.749 -20.6440  0.00  0.00     0.000 OA
ENDBRANCH 78 85
BRANCH 79 90
ATOM     90   O  Z9L D   5      27.222  27.034 -17.4830  0.00  0.00     0.000 O
ATOM     91   S  Z9L D   5      26.212  26.460 -16.3940  0.00  0.00     0.000 S
ATOM     92   O  Z9L D   5      24.807  26.772 -16.4060  0.00  0.00     0.000 OA
ATOM     93   O  Z9L D   5      26.915  26.253 -15.1530  0.00  0.00     0.000 O
ATOM     94   O  Z9L D   5      26.390  25.282 -17.1800  0.00  0.00     0.000 OA
ENDBRANCH 79 90
BRANCH 81 95
ATOM     95   C  Z9L D   5      29.812  31.230 -16.1640  0.00  0.00     0.000 C
ATOM     96   S  Z9L D   5      31.415  32.048 -17.0170  0.00  0.00     0.000 S
ATOM     97   O  Z9L D   5      30.317  31.008 -17.4540  0.00  0.00     0.000 O
ATOM     98   O  Z9L D   5      32.270  31.376 -16.0720  0.00  0.00     0.000 OA
ATOM     99   O  Z9L D   5      30.954  33.376 -16.7860  0.00  0.00     0.000 OA
ATOM    100   O  Z9L D   5      31.897  31.767 -18.3470  0.00  0.00     0.000 O
ENDBRANCH 81 95
ENDBRANCH 76 80
ENDBRANCH 60 76
ENDBRANCH 59 63
ENDBRANCH 37 59
ENDBRANCH 36 40
ENDBRANCH 23 36
ENDBRANCH 22 26
ENDBRANCH 1 22
TORSDOF 19
ENDMDL
MODEL 15
REMARK VINA RESULT:      -6.6     29.290     33.632
ROOT
ATOM      1  C1  Z9H D   1       6.765  44.246 -24.7240  0.00  0.00     0.000 C
ATOM      2  C2  Z9H D   1       5.917  44.186 -23.4310  0.00  0.00     0.000 C
ATOM      3  C3  Z9H D   1       4.678  44.983 -23.9410  0.00  0.00     0.000 C
ATOM      4  C4  Z9H D   1       5.001  46.372 -24.6320  0.00  0.00     0.000 C
ATOM      5  C5  Z9H D   1       6.120  46.549 -25.7350  0.00  0.00     0.000 C
ATOM      6  O5  Z9H D   1       7.070  45.525 -25.3460  0.00  0.00     0.000 O
ATOM      7   O  Z9H D   1       3.703  45.156 -22.9110  0.00  0.00     0.000 O
ATOM      8   C  Z9H D   1       2.607  44.225 -22.9380  0.00  0.00     0.000 C
ATOM      9   O  Z9H D   1       3.768  46.816 -25.2070  0.00  0.00     0.000 O
ATOM     10   C  Z9H D   1       3.043  47.784 -24.4420  0.00  0.00     0.000 C
ENDROOT
BRANCH 2 11
ATOM     11   O  Z9H D   1       5.507  42.844 -23.4140  0.00  0.00     0.000 O
ATOM     12   O  Z9H D   1       6.034  41.591 -22.1050  0.00  0.00     0.000 OA
ATOM     13   S  Z9H D   1       6.404  42.967 -22.1080  0.00  0.00     0.000 S
ATOM     14   O  Z9H D   1       5.694  43.761 -21.1470  0.00  0.00     0.000 OA
ATOM     15   O  Z9H D   1       7.804  43.111 -22.4340  0.00  0.00     0.000 O
ENDBRANCH 2 11
BRANCH 5 16
ATOM     16   C  Z9H D   1       6.603  48.128 -26.0060  0.00  0.00     0.000 C
ATOM     17   S  Z9H D   1       7.617  49.679 -25.2270  0.00  0.00     0.000 S
ATOM     18   O  Z9H D   1       7.822  48.079 -25.3030  0.00  0.00     0.000 O
ATOM     19   O  Z9H D   1       6.520  50.108 -24.4090  0.00  0.00     0.000 O
ATOM     20   O  Z9H D   1       7.935  50.274 -26.4780  0.00  0.00     0.000 OA
ATOM     21   O  Z9H D   1       8.833  49.562 -24.4770  0.00  0.00     0.000 OA
ENDBRANCH 5 16
BRANCH 1 22
ATOM     22  O4  GU1 D   2       6.196  43.519 -25.8720  0.00  0.00     0.000 O
BRANCH 22 26
ATOM     23  C1  GU1 D   2       7.652  41.463 -29.1310  0.00  0.00     0.000 C
ATOM     24  C2  GU1 D   2       8.716  42.076 -28.2340  0.00  0.00     0.000 C
ATOM     25  C3  GU1 D   2       8.102  42.451 -26.9170  0.00  0.00     0.000 C
ATOM     26  C4  GU1 D   2       6.875  43.328 -27.1190  0.00  0.00     0.000 C
ATOM     27  C5  GU1 D   2       5.917  42.669 -28.1160  0.00  0.00     0.000 C
ATOM     28  O5  GU1 D   2       6.589  42.385 -29.3400  0.00  0.00     0.000 O
ATOM     29   O  GU1 D   2       9.787  41.173 -27.9850  0.00  0.00     0.000 O
ATOM     30   C  GU1 D   2      10.908  41.361 -28.8370  0.00  0.00     0.000 C
ATOM     31   C  GU1 D   2       9.713  42.438 -25.1300  0.00  0.00     0.000 C
ATOM     32   O  GU1 D   2       9.069  43.184 -26.1590  0.00  0.00     0.000 O
BRANCH 27 33
ATOM     33   C  GU1 D   2       4.748  43.572 -28.4290  0.00  0.00     0.000 C
ATOM     34   O  GU1 D   2       3.629  43.100 -28.3990  0.00  0.00     0.000 OA
ATOM     35   O  GU1 D   2       4.927  44.749 -28.7020  0.00  0.00     0.000 O
ENDBRANCH 27 33
BRANCH 23 36
ATOM     36  O4  GU6 D   3       7.925  41.245 -30.5300  0.00  0.00     0.000 O
BRANCH 36 40
ATOM     37  C1  GU6 D   3       6.287  40.491 -34.1960  0.00  0.00     0.000 C
ATOM     38  C2  GU6 D   3       6.417  41.974 -33.8690  0.00  0.00     0.000 C
ATOM     39  C3  GU6 D   3       7.268  42.147 -32.6390  0.00  0.00     0.000 C
ATOM     40  C4  GU6 D   3       7.614  40.943 -31.8750  0.00  0.00     0.000 C
ATOM     41  C5  GU6 D   3       6.393  39.966 -31.8580  0.00  0.00     0.000 C
ATOM     42  O5  GU6 D   3       5.679  39.837 -33.0930  0.00  0.00     0.000 O
BRANCH 38 43
ATOM     43   O  GU6 D   3       6.991  42.674 -34.9560  0.00  0.00     0.000 O
ATOM     44   S  GU6 D   3       6.124  43.797 -35.5100  0.00  0.00     0.000 S
ATOM     45   O  GU6 D   3       5.127  43.211 -36.4240  0.00  0.00     0.000 OA
ATOM     46   O  GU6 D   3       5.432  44.455 -34.3870  0.00  0.00     0.000 O
ATOM     47   O  GU6 D   3       6.981  44.755 -36.2020  0.00  0.00     0.000 OA
ENDBRANCH 38 43
BRANCH 39 48
ATOM     48   O  GU6 D   3       7.901  43.381 -32.3610  0.00  0.00     0.000 O
ATOM     49   S  GU6 D   3       9.339  43.827 -32.6250  0.00  0.00     0.000 S
ATOM     50   O  GU6 D   3       9.668  43.659 -34.0450  0.00  0.00     0.000 OA
ATOM     51   O  GU6 D   3       9.322  45.247 -32.2480  0.00  0.00     0.000 OA
ATOM     52   O  GU6 D   3      10.254  43.013 -31.7930  0.00  0.00     0.000 O
ENDBRANCH 39 48
BRANCH 41 53
ATOM     53   C  GU6 D   3       5.868  39.125 -30.7250  0.00  0.00     0.000 C
ATOM     54   O  GU6 D   3       4.640  39.783 -30.5520  0.00  0.00     0.000 O
ATOM     55   S  GU6 D   3       3.702  39.392 -29.4020  0.00  0.00     0.000 S
ATOM     56   O  GU6 D   3       4.394  39.755 -28.1440  0.00  0.00     0.000 O
ATOM     57   O  GU6 D   3       2.449  40.146 -29.5430  0.00  0.00     0.000 OA
ATOM     58   O  GU6 D   3       3.488  37.930 -29.4890  0.00  0.00     0.000 OA
ENDBRANCH 41 53
BRANCH 37 59
ATOM     59  O4  Z9K D   4       7.363  39.647 -34.6570  0.00  0.00     0.000 O
BRANCH 59 63
ATOM     60  C1  Z9K D   4       9.119  41.114 -37.8510  0.00  0.00     0.000 C
ATOM     61  C2  Z9K D   4       7.821  40.523 -38.4670  0.00  0.00     0.000 C
ATOM     62  C3  Z9K D   4       7.032  40.098 -37.1530  0.00  0.00     0.000 C
ATOM     63  C4  Z9K D   4       7.800  39.331 -36.0100  0.00  0.00     0.000 C
ATOM     64  C5  Z9K D   4       9.314  39.578 -35.9320  0.00  0.00     0.000 C
ATOM     65  O5  Z9K D   4       9.441  40.950 -36.3910  0.00  0.00     0.000 O
ATOM     66   O  Z9K D   4       5.871  39.291 -37.4230  0.00  0.00     0.000 O
ATOM     67   C  Z9K D   4       4.699  40.032 -37.7220  0.00  0.00     0.000 C
BRANCH 61 68
ATOM     68   O  Z9K D   4       7.107  41.592 -39.0250  0.00  0.00     0.000 O
ATOM     69   O  Z9K D   4       6.749  39.440 -40.3630  0.00  0.00     0.000 OA
ATOM     70   S  Z9K D   4       7.441  40.694 -40.3310  0.00  0.00     0.000 S
ATOM     71   O  Z9K D   4       8.806  40.906 -40.7060  0.00  0.00     0.000 OA
ATOM     72   O  Z9K D   4       6.632  41.736 -40.8740  0.00  0.00     0.000 OA
ENDBRANCH 61 68
BRANCH 64 73
ATOM     73   C  Z9K D   4       9.860  39.209 -34.5370  0.00  0.00     0.000 C
ATOM     74   O  Z9K D   4      10.234  40.102 -33.7220  0.00  0.00     0.000 O
ATOM     75   O  Z9K D   4       9.946  38.017 -34.1540  0.00  0.00     0.000 OA
ENDBRANCH 64 73
BRANCH 60 76
ATOM     76  O4  Z9L D   5      10.478  40.935 -38.2880  0.00  0.00     0.000 O
BRANCH 76 80
ATOM     77  C1  Z9L D   5      13.934  42.755 -39.1350  0.00  0.00     0.000 C
ATOM     78  C2  Z9L D   5      14.162  41.916 -37.7870  0.00  0.00     0.000 C
ATOM     79  C3  Z9L D   5      12.889  40.808 -37.6830  0.00  0.00     0.000 C
ATOM     80  C4  Z9L D   5      11.614  41.746 -38.1400  0.00  0.00     0.000 C
ATOM     81  C5  Z9L D   5      11.451  42.776 -39.3700  0.00  0.00     0.000 C
ATOM     82  O5  Z9L D   5      12.689  43.496 -39.4610  0.00  0.00     0.000 O
ATOM     83   C  Z9L D   5      14.144  42.542 -41.5440  0.00  0.00     0.000 C
ATOM     84   C  Z9L D   5      14.144  42.542 -41.5440  0.00  0.00     0.000 C
BRANCH 78 85
ATOM     85   O  Z9L D   5      15.363  41.222 -37.9080  0.00  0.00     0.000 O
ATOM     86   O  Z9L D   5      16.975  41.622 -36.9330  0.00  0.00     0.000 OA
ATOM     87   S  Z9L D   5      15.707  42.250 -36.7210  0.00  0.00     0.000 S
ATOM     88   O  Z9L D   5      15.279  41.799 -35.4200  0.00  0.00     0.000 OA
ATOM     89   O  Z9L D   5      15.895  43.609 -37.0950  0.00  0.00     0.000 OA
ENDBRANCH 78 85
BRANCH 79 90
ATOM     90   O  Z9L D   5      12.584  40.508 -36.3580  0.00  0.00     0.000 O
ATOM     91   S  Z9L D   5      12.973  39.054 -36.8780  0.00  0.00     0.000 S
ATOM     92   O  Z9L D   5      14.244  38.768 -37.4890  0.00  0.00     0.000 OA
ATOM     93   O  Z9L D   5      11.779  38.360 -37.2910  0.00  0.00     0.000 O
ATOM     94   O  Z9L D   5      13.121  38.839 -35.4740  0.00  0.00     0.000 OA
ENDBRANCH 79 90
BRANCH 81 95
ATOM     95   C  Z9L D   5      10.016  43.637 -39.4670  0.00  0.00     0.000 C
ATOM     96   S  Z9L D   5       9.174  45.329 -40.0960  0.00  0.00     0.000 S
ATOM     97   O  Z9L D   5      10.563  44.929 -39.4730  0.00  0.00     0.000 O
ATOM     98   O  Z9L D   5       8.204  45.251 -39.0330  0.00  0.00     0.000 OA
ATOM     99   O  Z9L D   5       8.899  44.801 -41.3890  0.00  0.00     0.000 OA
ATOM    100   O  Z9L D   5       9.783  46.636 -40.0610  0.00  0.00     0.000 O
ENDBRANCH 81 95
ENDBRANCH 76 80
ENDBRANCH 60 76
ENDBRANCH 59 63
ENDBRANCH 37 59
ENDBRANCH 36 40
ENDBRANCH 23 36
ENDBRANCH 22 26
ENDBRANCH 1 22
TORSDOF 19
ENDMDL
MODEL 16
REMARK VINA RESULT:      -6.6     25.664     31.626
ROOT
ATOM      1  C1  Z9H D   1      16.676   1.741 -43.5000  0.00  0.00     0.000 C
ATOM      2  C2  Z9H D   1      17.070   2.255 -44.9050  0.00  0.00     0.000 C
ATOM      3  C3  Z9H D   1      15.677   2.803 -45.3410  0.00  0.00     0.000 C
ATOM      4  C4  Z9H D   1      14.465   1.798 -45.1580  0.00  0.00     0.000 C
ATOM      5  C5  Z9H D   1      14.217   0.975 -43.8320  0.00  0.00     0.000 C
ATOM      6  O5  Z9H D   1      15.571   0.808 -43.3410  0.00  0.00     0.000 O
ATOM      7   O  Z9H D   1      15.705   3.310 -46.6770  0.00  0.00     0.000 O
ATOM      8   C  Z9H D   1      15.848   4.735 -46.7910  0.00  0.00     0.000 C
ATOM      9   O  Z9H D   1      13.282   2.566 -45.4060  0.00  0.00     0.000 O
ATOM     10   C  Z9H D   1      12.720   2.429 -46.7140  0.00  0.00     0.000 C
ENDROOT
BRANCH 2 11
ATOM     11   O  Z9H D   1      17.830   3.394 -44.5970  0.00  0.00     0.000 O
ATOM     12   O  Z9H D   1      19.672   3.570 -44.9630  0.00  0.00     0.000 OA
ATOM     13   S  Z9H D   1      18.879   2.440 -45.3130  0.00  0.00     0.000 S
ATOM     14   O  Z9H D   1      18.549   2.374 -46.7080  0.00  0.00     0.000 OA
ATOM     15   O  Z9H D   1      19.223   1.307 -44.4860  0.00  0.00     0.000 O
ENDBRANCH 2 11
BRANCH 5 16
ATOM     16   C  Z9H D   1      13.182  -0.330 -43.9910  0.00  0.00     0.000 C
ATOM     17   S  Z9H D   1      12.371  -1.617 -45.3050  0.00  0.00     0.000 S
ATOM     18   O  Z9H D   1      13.825  -0.956 -45.0740  0.00  0.00     0.000 O
ATOM     19   O  Z9H D   1      11.350  -0.698 -45.7200  0.00  0.00     0.000 O
ATOM     20   O  Z9H D   1      12.148  -2.654 -44.3580  0.00  0.00     0.000 OA
ATOM     21   O  Z9H D   1      13.066  -2.186 -46.4220  0.00  0.00     0.000 OA
ENDBRANCH 5 16
BRANCH 1 22
ATOM     22  O4  GU1 D   2      16.279   2.791 -42.5460  0.00  0.00     0.000 O
BRANCH 22 26
ATOM     23  C1  GU1 D   2      16.466   4.011 -38.6150  0.00  0.00     0.000 C
ATOM     24  C2  GU1 D   2      17.699   3.273 -39.1160  0.00  0.00     0.000 C
ATOM     25  C3  GU1 D   2      17.676   3.226 -40.6160  0.00  0.00     0.000 C
ATOM     26  C4  GU1 D   2      16.359   2.655 -41.1220  0.00  0.00     0.000 C
ATOM     27  C5  GU1 D   2      15.184   3.398 -40.4800  0.00  0.00     0.000 C
ATOM     28  O5  GU1 D   2      15.284   3.355 -39.0590  0.00  0.00     0.000 O
ATOM     29   O  GU1 D   2      18.903   3.913 -38.7100  0.00  0.00     0.000 O
ATOM     30   C  GU1 D   2      19.485   3.354 -37.5400  0.00  0.00     0.000 C
ATOM     31   C  GU1 D   2      19.888   3.069 -41.5510  0.00  0.00     0.000 C
ATOM     32   O  GU1 D   2      18.742   2.380 -41.0580  0.00  0.00     0.000 O
BRANCH 27 33
ATOM     33   C  GU1 D   2      13.865   2.774 -40.8700  0.00  0.00     0.000 C
ATOM     34   O  GU1 D   2      13.117   3.406 -41.5880  0.00  0.00     0.000 OA
ATOM     35   O  GU1 D   2      13.563   1.660 -40.4730  0.00  0.00     0.000 O
ENDBRANCH 27 33
BRANCH 23 36
ATOM     36  O4  GU6 D   3      16.126   3.980 -37.2150  0.00  0.00     0.000 O
BRANCH 36 40
ATOM     37  C1  GU6 D   3      14.384   5.633 -33.9100  0.00  0.00     0.000 C
ATOM     38  C2  GU6 D   3      14.081   4.151 -34.0930  0.00  0.00     0.000 C
ATOM     39  C3  GU6 D   3      14.974   3.582 -35.1640  0.00  0.00     0.000 C
ATOM     40  C4  GU6 D   3      15.768   4.523 -35.9610  0.00  0.00     0.000 C
ATOM     41  C5  GU6 D   3      14.926   5.812 -36.2390  0.00  0.00     0.000 C
ATOM     42  O5  GU6 D   3      14.147   6.299 -35.1400  0.00  0.00     0.000 O
BRANCH 38 43
ATOM     43   O  GU6 D   3      14.274   3.450 -32.8800  0.00  0.00     0.000 O
ATOM     44   S  GU6 D   3      13.005   3.246 -32.0620  0.00  0.00     0.000 S
ATOM     45   O  GU6 D   3      12.736   4.477 -31.3000  0.00  0.00     0.000 OA
ATOM     46   O  GU6 D   3      11.886   2.988 -32.9870  0.00  0.00     0.000 O
ATOM     47   O  GU6 D   3      13.195   2.102 -31.1760  0.00  0.00     0.000 OA
ENDBRANCH 38 43
BRANCH 39 48
ATOM     48   O  GU6 D   3      15.217   2.190 -35.2430  0.00  0.00     0.000 O
ATOM     49   S  GU6 D   3      14.327   1.068 -35.7760  0.00  0.00     0.000 S
ATOM     50   O  GU6 D   3      13.919   1.358 -37.1560  0.00  0.00     0.000 OA
ATOM     51   O  GU6 D   3      15.204  -0.109 -35.7170  0.00  0.00     0.000 OA
ATOM     52   O  GU6 D   3      13.133   0.950 -34.9090  0.00  0.00     0.000 O
ENDBRANCH 39 48
BRANCH 41 53
ATOM     53   C  GU6 D   3      14.829   6.626 -37.5020  0.00  0.00     0.000 C
ATOM     54   O  GU6 D   3      15.006   7.894 -36.9250  0.00  0.00     0.000 O
ATOM     55   S  GU6 D   3      14.882   9.162 -37.7800  0.00  0.00     0.000 S
ATOM     56   O  GU6 D   3      13.469   9.247 -38.2160  0.00  0.00     0.000 O
ATOM     57   O  GU6 D   3      15.242  10.322 -36.9520  0.00  0.00     0.000 OA
ATOM     58   O  GU6 D   3      15.788   8.999 -38.9400  0.00  0.00     0.000 OA
ENDBRANCH 41 53
BRANCH 37 59
ATOM     59  O4  Z9K D   4      15.608   6.167 -33.3610  0.00  0.00     0.000 O
BRANCH 59 63
ATOM     60  C1  Z9K D   4      15.083   6.260 -29.4670  0.00  0.00     0.000 C
ATOM     61  C2  Z9K D   4      14.485   7.631 -29.8840  0.00  0.00     0.000 C
ATOM     62  C3  Z9K D   4      14.530   7.511 -31.4690  0.00  0.00     0.000 C
ATOM     63  C4  Z9K D   4      15.836   6.960 -32.1600  0.00  0.00     0.000 C
ATOM     64  C5  Z9K D   4      16.707   6.025 -31.3080  0.00  0.00     0.000 C
ATOM     65  O5  Z9K D   4      15.731   5.348 -30.4730  0.00  0.00     0.000 O
ATOM     66   O  Z9K D   4      14.251   8.751 -32.1430  0.00  0.00     0.000 O
ATOM     67   C  Z9K D   4      12.871   9.013 -32.3390  0.00  0.00     0.000 C
BRANCH 61 68
ATOM     68   O  Z9K D   4      13.130   7.614 -29.5270  0.00  0.00     0.000 O
ATOM     69   O  Z9K D   4      14.109   9.971 -29.3350  0.00  0.00     0.000 OA
ATOM     70   S  Z9K D   4      13.706   8.810 -28.5990  0.00  0.00     0.000 S
ATOM     71   O  Z9K D   4      14.403   8.242 -27.4860  0.00  0.00     0.000 OA
ATOM     72   O  Z9K D   4      12.308   8.847 -28.3150  0.00  0.00     0.000 OA
ENDBRANCH 61 68
BRANCH 64 73
ATOM     73   C  Z9K D   4      17.636   5.175 -32.2010  0.00  0.00     0.000 C
ATOM     74   O  Z9K D   4      17.440   3.935 -32.3580  0.00  0.00     0.000 O
ATOM     75   O  Z9K D   4      18.612   5.679 -32.8090  0.00  0.00     0.000 OA
ENDBRANCH 64 73
BRANCH 60 76
ATOM     76  O4  Z9L D   5      16.037   5.979 -28.4290  0.00  0.00     0.000 O
BRANCH 76 80
ATOM     77  C1  Z9L D   5      16.937   3.522 -25.4070  0.00  0.00     0.000 C
ATOM     78  C2  Z9L D   5      18.067   3.323 -26.5270  0.00  0.00     0.000 C
ATOM     79  C3  Z9L D   5      17.960   4.652 -27.5680  0.00  0.00     0.000 C
ATOM     80  C4  Z9L D   5      16.327   4.796 -27.7290  0.00  0.00     0.000 C
ATOM     81  C5  Z9L D   5      15.152   4.767 -26.6250  0.00  0.00     0.000 C
ATOM     82  O5  Z9L D   5      15.495   3.727 -25.6970  0.00  0.00     0.000 O
ATOM     83   C  Z9L D   5      16.468   4.830 -23.4170  0.00  0.00     0.000 C
ATOM     84   C  Z9L D   5      16.468   4.830 -23.4170  0.00  0.00     0.000 C
BRANCH 78 85
ATOM     85   O  Z9L D   5      19.308   3.336 -25.8970  0.00  0.00     0.000 O
ATOM     86   O  Z9L D   5      20.457   1.805 -25.6830  0.00  0.00     0.000 OA
ATOM     87   S  Z9L D   5      19.242   1.825 -26.4380  0.00  0.00     0.000 S
ATOM     88   O  Z9L D   5      19.654   1.681 -27.8130  0.00  0.00     0.000 OA
ATOM     89   O  Z9L D   5      18.361   0.944 -25.7520  0.00  0.00     0.000 OA
ENDBRANCH 78 85
BRANCH 79 90
ATOM     90   O  Z9L D   5      18.363   4.320 -28.8580  0.00  0.00     0.000 O
ATOM     91   S  Z9L D   5      19.398   5.490 -28.5480  0.00  0.00     0.000 S
ATOM     92   O  Z9L D   5      20.273   5.462 -27.4060  0.00  0.00     0.000 OA
ATOM     93   O  Z9L D   5      18.875   6.736 -29.0510  0.00  0.00     0.000 O
ATOM     94   O  Z9L D   5      20.088   4.857 -29.6250  0.00  0.00     0.000 OA
ENDBRANCH 79 90
BRANCH 81 95
ATOM     95   C  Z9L D   5      13.572   4.853 -27.1810  0.00  0.00     0.000 C
ATOM     96   S  Z9L D   5      11.930   3.800 -27.5830  0.00  0.00     0.000 S
ATOM     97   O  Z9L D   5      13.480   3.558 -27.7110  0.00  0.00     0.000 O
ATOM     98   O  Z9L D   5      11.571   4.740 -28.6140  0.00  0.00     0.000 OA
ATOM     99   O  Z9L D   5      11.430   3.929 -26.2560  0.00  0.00     0.000 OA
ATOM    100   O  Z9L D   5      11.898   2.473 -28.1460  0.00  0.00     0.000 O
ENDBRANCH 81 95
ENDBRANCH 76 80
ENDBRANCH 60 76
ENDBRANCH 59 63
ENDBRANCH 37 59
ENDBRANCH 36 40
ENDBRANCH 23 36
ENDBRANCH 22 26
ENDBRANCH 1 22
TORSDOF 19
ENDMDL
MODEL 17
REMARK VINA RESULT:      -6.5     21.473     27.042
ROOT
ATOM      1  C1  Z9H D   1      24.911  52.039 -14.0190  0.00  0.00     0.000 C
ATOM      2  C2  Z9H D   1      24.858  53.548 -14.3560  0.00  0.00     0.000 C
ATOM      3  C3  Z9H D   1      25.573  54.086 -13.0790  0.00  0.00     0.000 C
ATOM      4  C4  Z9H D   1      25.005  53.544 -11.7030  0.00  0.00     0.000 C
ATOM      5  C5  Z9H D   1      24.713  52.015 -11.4310  0.00  0.00     0.000 C
ATOM      6  O5  Z9H D   1      24.374  51.546 -12.7600  0.00  0.00     0.000 O
ATOM      7   O  Z9H D   1      25.626  55.514 -13.0670  0.00  0.00     0.000 O
ATOM      8   C  Z9H D   1      26.866  56.088 -13.5110  0.00  0.00     0.000 C
ATOM      9   O  Z9H D   1      25.928  53.983 -10.7010  0.00  0.00     0.000 O
ATOM     10   C  Z9H D   1      25.542  55.155  -9.9770  0.00  0.00     0.000 C
ENDROOT
BRANCH 2 11
ATOM     11   O  Z9H D   1      25.812  53.652 -15.3810  0.00  0.00     0.000 O
ATOM     12   O  Z9H D   1      25.398  54.057 -17.1760  0.00  0.00     0.000 OA
ATOM     13   S  Z9H D   1      24.447  53.996 -16.1180  0.00  0.00     0.000 S
ATOM     14   O  Z9H D   1      24.000  55.282 -15.6640  0.00  0.00     0.000 OA
ATOM     15   O  Z9H D   1      23.609  52.827 -16.2610  0.00  0.00     0.000 O
ENDBRANCH 2 11
BRANCH 5 16
ATOM     16   C  Z9H D   1      23.721  51.705 -10.1190  0.00  0.00     0.000 C
ATOM     17   S  Z9H D   1      21.846  51.229  -9.5700  0.00  0.00     0.000 S
ATOM     18   O  Z9H D   1      22.861  50.781 -10.7430  0.00  0.00     0.000 O
ATOM     19   O  Z9H D   1      21.374  52.581  -9.6660  0.00  0.00     0.000 O
ATOM     20   O  Z9H D   1      22.217  50.619  -8.3420  0.00  0.00     0.000 OA
ATOM     21   O  Z9H D   1      20.999  50.314 -10.2760  0.00  0.00     0.000 OA
ENDBRANCH 5 16
BRANCH 1 22
ATOM     22  O4  GU1 D   2      26.266  51.461 -13.9770  0.00  0.00     0.000 O
BRANCH 22 26
ATOM     23  C1  GU1 D   2      28.444  48.029 -14.6440  0.00  0.00     0.000 C
ATOM     24  C2  GU1 D   2      27.190  48.165 -15.4940  0.00  0.00     0.000 C
ATOM     25  C3  GU1 D   2      26.709  49.587 -15.4450  0.00  0.00     0.000 C
ATOM     26  C4  GU1 D   2      26.542  50.056 -14.0070  0.00  0.00     0.000 C
ATOM     27  C5  GU1 D   2      27.822  49.779 -13.2130  0.00  0.00     0.000 C
ATOM     28  O5  GU1 D   2      28.172  48.400 -13.2970  0.00  0.00     0.000 O
ATOM     29   O  GU1 D   2      27.429  47.823 -16.8540  0.00  0.00     0.000 O
ATOM     30   C  GU1 D   2      27.072  46.488 -17.1810  0.00  0.00     0.000 C
ATOM     31   C  GU1 D   2      25.474  50.192 -17.4210  0.00  0.00     0.000 C
ATOM     32   O  GU1 D   2      25.438  49.656 -16.1000  0.00  0.00     0.000 O
BRANCH 27 33
ATOM     33   C  GU1 D   2      27.645  50.123 -11.7530  0.00  0.00     0.000 C
ATOM     34   O  GU1 D   2      28.173  51.130 -11.3290  0.00  0.00     0.000 OA
ATOM     35   O  GU1 D   2      26.982  49.404 -11.0220  0.00  0.00     0.000 O
ENDBRANCH 27 33
BRANCH 23 36
ATOM     36  O4  GU6 D   3      28.961  46.721 -14.3260  0.00  0.00     0.000 O
BRANCH 36 40
ATOM     37  C1  GU6 D   3      30.208  43.267 -12.5360  0.00  0.00     0.000 C
ATOM     38  C2  GU6 D   3      31.302  43.992 -13.3100  0.00  0.00     0.000 C
ATOM     39  C3  GU6 D   3      30.821  45.366 -13.6950  0.00  0.00     0.000 C
ATOM     40  C4  GU6 D   3      29.403  45.677 -13.4830  0.00  0.00     0.000 C
ATOM     41  C5  GU6 D   3      28.537  44.417 -13.8150  0.00  0.00     0.000 C
ATOM     42  O5  GU6 D   3      29.060  43.163 -13.3640  0.00  0.00     0.000 O
BRANCH 38 43
ATOM     43   O  GU6 D   3      32.479  44.092 -12.5330  0.00  0.00     0.000 O
ATOM     44   S  GU6 D   3      33.464  42.947 -12.7330  0.00  0.00     0.000 S
ATOM     45   O  GU6 D   3      33.028  41.805 -11.9120  0.00  0.00     0.000 OA
ATOM     46   O  GU6 D   3      33.454  42.561 -14.1560  0.00  0.00     0.000 O
ATOM     47   O  GU6 D   3      34.797  43.401 -12.3480  0.00  0.00     0.000 OA
ENDBRANCH 38 43
BRANCH 39 48
ATOM     48   O  GU6 D   3      31.739  46.391 -14.0260  0.00  0.00     0.000 O
ATOM     49   S  GU6 D   3      32.467  46.668 -15.3410  0.00  0.00     0.000 S
ATOM     50   O  GU6 D   3      31.500  46.797 -16.4370  0.00  0.00     0.000 OA
ATOM     51   O  GU6 D   3      33.149  47.943 -15.0810  0.00  0.00     0.000 OA
ATOM     52   O  GU6 D   3      33.400  45.552 -15.6180  0.00  0.00     0.000 O
ENDBRANCH 39 48
BRANCH 41 53
ATOM     53   C  GU6 D   3      27.217  44.338 -14.5330  0.00  0.00     0.000 C
ATOM     54   O  GU6 D   3      26.419  44.910 -13.5290  0.00  0.00     0.000 O
ATOM     55   S  GU6 D   3      24.895  44.979 -13.6920  0.00  0.00     0.000 S
ATOM     56   O  GU6 D   3      24.400  43.583 -13.6800  0.00  0.00     0.000 O
ATOM     57   O  GU6 D   3      24.337  45.737 -12.5620  0.00  0.00     0.000 OA
ATOM     58   O  GU6 D   3      24.621  45.630 -14.9920  0.00  0.00     0.000 OA
ENDBRANCH 41 53
BRANCH 37 59
ATOM     59  O4  Z9K D   4      29.753  43.624 -11.2140  0.00  0.00     0.000 O
BRANCH 59 63
ATOM     60  C1  Z9K D   4      29.482  44.852  -7.4900  0.00  0.00     0.000 C
ATOM     61  C2  Z9K D   4      30.708  45.666  -7.9870  0.00  0.00     0.000 C
ATOM     62  C3  Z9K D   4      30.700  45.308  -9.5360  0.00  0.00     0.000 C
ATOM     63  C4  Z9K D   4      30.500  43.808  -9.9760  0.00  0.00     0.000 C
ATOM     64  C5  Z9K D   4      29.732  42.912  -8.9920  0.00  0.00     0.000 C
ATOM     65  O5  Z9K D   4      28.803  43.840  -8.3720  0.00  0.00     0.000 O
ATOM     66   O  Z9K D   4      31.887  45.740 -10.2260  0.00  0.00     0.000 O
ATOM     67   C  Z9K D   4      31.845  47.084 -10.6770  0.00  0.00     0.000 C
BRANCH 61 68
ATOM     68   O  Z9K D   4      30.366  47.022  -7.8950  0.00  0.00     0.000 O
ATOM     69   O  Z9K D   4      32.872  46.671  -7.5110  0.00  0.00     0.000 OA
ATOM     70   S  Z9K D   4      31.616  46.921  -6.8700  0.00  0.00     0.000 S
ATOM     71   O  Z9K D   4      31.170  46.329  -5.6460  0.00  0.00     0.000 OA
ATOM     72   O  Z9K D   4      31.320  48.318  -6.8570  0.00  0.00     0.000 OA
ENDBRANCH 61 68
BRANCH 64 73
ATOM     73   C  Z9K D   4      29.169  41.666  -9.7080  0.00  0.00     0.000 C
ATOM     74   O  Z9K D   4      29.906  40.671  -9.9670  0.00  0.00     0.000 O
ATOM     75   O  Z9K D   4      27.965  41.589 -10.0540  0.00  0.00     0.000 OA
ENDBRANCH 64 73
BRANCH 60 76
ATOM     76  O4  Z9L D   5      29.357  44.063  -6.2940  0.00  0.00     0.000 O
BRANCH 76 80
ATOM     77  C1  Z9L D   5      27.013  43.234  -3.1650  0.00  0.00     0.000 C
ATOM     78  C2  Z9L D   5      27.088  41.906  -4.0610  0.00  0.00     0.000 C
ATOM     79  C3  Z9L D   5      28.409  42.095  -5.1010  0.00  0.00     0.000 C
ATOM     80  C4  Z9L D   5      28.229  43.668  -5.5560  0.00  0.00     0.000 C
ATOM     81  C5  Z9L D   5      27.923  44.989  -4.6850  0.00  0.00     0.000 C
ATOM     82  O5  Z9L D   5      26.937  44.612  -3.7130  0.00  0.00     0.000 O
ATOM     83   C  Z9L D   5      28.122  44.306  -1.2900  0.00  0.00     0.000 C
ATOM     84   C  Z9L D   5      28.122  44.306  -1.2900  0.00  0.00     0.000 C
BRANCH 78 85
ATOM     85   O  Z9L D   5      27.324  40.826  -3.2150  0.00  0.00     0.000 O
ATOM     86   O  Z9L D   5      26.053  39.437  -2.8110  0.00  0.00     0.000 OA
ATOM     87   S  Z9L D   5      25.859  40.477  -3.7750  0.00  0.00     0.000 S
ATOM     88   O  Z9L D   5      25.870  39.809  -5.0530  0.00  0.00     0.000 OA
ATOM     89   O  Z9L D   5      24.785  41.260  -3.2700  0.00  0.00     0.000 OA
ENDBRANCH 78 85
BRANCH 79 90
ATOM     90   O  Z9L D   5      28.215  41.409  -6.2970  0.00  0.00     0.000 O
ATOM     91   S  Z9L D   5      29.532  40.678  -5.7800  0.00  0.00     0.000 S
ATOM     92   O  Z9L D   5      29.603  40.036  -4.4940  0.00  0.00     0.000 OA
ATOM     93   O  Z9L D   5      30.689  41.317  -6.3540  0.00  0.00     0.000 O
ATOM     94   O  Z9L D   5      29.083  39.699  -6.7170  0.00  0.00     0.000 OA
ENDBRANCH 79 90
BRANCH 81 95
ATOM     95   C  Z9L D   5      27.713  46.429  -5.5190  0.00  0.00     0.000 C
ATOM     96   S  Z9L D   5      26.369  47.687  -6.2790  0.00  0.00     0.000 S
ATOM     97   O  Z9L D   5      26.488  46.124  -6.1300  0.00  0.00     0.000 O
ATOM     98   O  Z9L D   5      27.303  48.078  -7.3040  0.00  0.00     0.000 OA
ATOM     99   O  Z9L D   5      26.254  48.419  -5.0630  0.00  0.00     0.000 OA
ATOM    100   O  Z9L D   5      25.129  47.312  -6.9130  0.00  0.00     0.000 O
ENDBRANCH 81 95
ENDBRANCH 76 80
ENDBRANCH 60 76
ENDBRANCH 59 63
ENDBRANCH 37 59
ENDBRANCH 36 40
ENDBRANCH 23 36
ENDBRANCH 22 26
ENDBRANCH 1 22
TORSDOF 19
ENDMDL
MODEL 18
REMARK VINA RESULT:      -6.5     32.995     39.307
ROOT
ATOM      1  C1  Z9H D   1      -3.837  21.384 -22.2910  0.00  0.00     0.000 C
ATOM      2  C2  Z9H D   1      -2.912  20.930 -23.4450  0.00  0.00     0.000 C
ATOM      3  C3  Z9H D   1      -2.333  22.327 -23.8280  0.00  0.00     0.000 C
ATOM      4  C4  Z9H D   1      -3.408  23.469 -24.0540  0.00  0.00     0.000 C
ATOM      5  C5  Z9H D   1      -4.598  23.747 -23.0510  0.00  0.00     0.000 C
ATOM      6  O5  Z9H D   1      -4.832  22.422 -22.5090  0.00  0.00     0.000 O
ATOM      7   O  Z9H D   1      -1.454  22.242 -24.9510  0.00  0.00     0.000 O
ATOM      8   C  Z9H D   1      -0.052  22.200 -24.6340  0.00  0.00     0.000 C
ATOM      9   O  Z9H D   1      -2.664  24.685 -24.1740  0.00  0.00     0.000 O
ATOM     10   C  Z9H D   1      -2.438  25.141 -25.5120  0.00  0.00     0.000 C
ENDROOT
BRANCH 2 11
ATOM     11   O  Z9H D   1      -1.877  20.283 -22.7520  0.00  0.00     0.000 O
ATOM     12   O  Z9H D   1      -1.544  18.428 -22.8340  0.00  0.00     0.000 OA
ATOM     13   S  Z9H D   1      -2.560  19.104 -23.5690  0.00  0.00     0.000 S
ATOM     14   O  Z9H D   1      -2.251  19.280 -24.9590  0.00  0.00     0.000 OA
ATOM     15   O  Z9H D   1      -3.865  18.777 -23.0420  0.00  0.00     0.000 O
ENDBRANCH 2 11
BRANCH 5 16
ATOM     16   C  Z9H D   1      -5.850  24.666 -23.6740  0.00  0.00     0.000 C
ATOM     17   S  Z9H D   1      -7.205  26.084 -23.2350  0.00  0.00     0.000 S
ATOM     18   O  Z9H D   1      -5.651  25.817 -22.8890  0.00  0.00     0.000 O
ATOM     19   O  Z9H D   1      -8.123  25.156 -22.6380  0.00  0.00     0.000 O
ATOM     20   O  Z9H D   1      -7.337  26.562 -24.5670  0.00  0.00     0.000 OA
ATOM     21   O  Z9H D   1      -6.957  27.213 -22.3870  0.00  0.00     0.000 OA
ENDBRANCH 5 16
BRANCH 1 22
ATOM     22  O4  GU1 D   2      -3.137  21.926 -21.1130  0.00  0.00     0.000 O
BRANCH 22 26
ATOM     23  C1  GU1 D   2      -3.019  22.088 -16.9980  0.00  0.00     0.000 C
ATOM     24  C2  GU1 D   2      -3.302  20.710 -17.5760  0.00  0.00     0.000 C
ATOM     25  C3  GU1 D   2      -2.944  20.699 -19.0340  0.00  0.00     0.000 C
ATOM     26  C4  GU1 D   2      -3.633  21.838 -19.7720  0.00  0.00     0.000 C
ATOM     27  C5  GU1 D   2      -3.371  23.164 -19.0510  0.00  0.00     0.000 C
ATOM     28  O5  GU1 D   2      -3.774  23.078 -17.6870  0.00  0.00     0.000 O
ATOM     29   O  GU1 D   2      -2.547  19.695 -16.9250  0.00  0.00     0.000 O
ATOM     30   C  GU1 D   2      -3.260  19.017 -15.9000  0.00  0.00     0.000 C
ATOM     31   C  GU1 D   2      -2.349  18.497 -19.8030  0.00  0.00     0.000 C
ATOM     32   O  GU1 D   2      -3.382  19.458 -19.5970  0.00  0.00     0.000 O
BRANCH 27 33
ATOM     33   C  GU1 D   2      -4.141  24.295 -19.6910  0.00  0.00     0.000 C
ATOM     34   O  GU1 D   2      -3.518  25.173 -20.2510  0.00  0.00     0.000 OA
ATOM     35   O  GU1 D   2      -5.361  24.319 -19.6470  0.00  0.00     0.000 O
ENDBRANCH 27 33
BRANCH 23 36
ATOM     36  O4  GU6 D   3      -3.503  22.433 -15.6850  0.00  0.00     0.000 O
BRANCH 36 40
ATOM     37  C1  GU6 D   3      -5.509  24.062 -12.5200  0.00  0.00     0.000 C
ATOM     38  C2  GU6 D   3      -4.054  23.719 -12.2200  0.00  0.00     0.000 C
ATOM     39  C3  GU6 D   3      -3.340  23.388 -13.5040  0.00  0.00     0.000 C
ATOM     40  C4  GU6 D   3      -4.152  23.231 -14.7160  0.00  0.00     0.000 C
ATOM     41  C5  GU6 D   3      -5.497  22.517 -14.3550  0.00  0.00     0.000 C
ATOM     42  O5  GU6 D   3      -6.120  22.939 -13.1370  0.00  0.00     0.000 O
BRANCH 38 43
ATOM     43   O  GU6 D   3      -3.411  24.801 -11.5750  0.00  0.00     0.000 O
ATOM     44   S  GU6 D   3      -3.401  24.710 -10.0550  0.00  0.00     0.000 S
ATOM     45   O  GU6 D   3      -4.698  25.189  -9.5480  0.00  0.00     0.000 OA
ATOM     46   O  GU6 D   3      -3.214  23.300  -9.6680  0.00  0.00     0.000 O
ATOM     47   O  GU6 D   3      -2.299  25.519  -9.5430  0.00  0.00     0.000 OA
ENDBRANCH 38 43
BRANCH 39 48
ATOM     48   O  GU6 D   3      -1.929  23.455 -13.5880  0.00  0.00     0.000 O
ATOM     49   S  GU6 D   3      -0.873  22.418 -13.2080  0.00  0.00     0.000 S
ATOM     50   O  GU6 D   3      -1.133  21.153 -13.9050  0.00  0.00     0.000 OA
ATOM     51   O  GU6 D   3       0.379  23.032 -13.6710  0.00  0.00     0.000 OA
ATOM     52   O  GU6 D   3      -0.913  22.207 -11.7440  0.00  0.00     0.000 O
ENDBRANCH 39 48
BRANCH 41 53
ATOM     53   C  GU6 D   3      -6.240  21.455 -15.1180  0.00  0.00     0.000 C
ATOM     54   O  GU6 D   3      -6.701  22.263 -16.1700  0.00  0.00     0.000 O
ATOM     55   S  GU6 D   3      -7.649  21.691 -17.2330  0.00  0.00     0.000 S
ATOM     56   O  GU6 D   3      -8.922  21.375 -16.5440  0.00  0.00     0.000 O
ATOM     57   O  GU6 D   3      -7.859  22.711 -18.2700  0.00  0.00     0.000 OA
ATOM     58   O  GU6 D   3      -7.017  20.466 -17.7720  0.00  0.00     0.000 OA
ENDBRANCH 41 53
BRANCH 37 59
ATOM     59  O4  Z9K D   4      -5.954  25.237 -13.2290  0.00  0.00     0.000 O
BRANCH 59 63
ATOM     60  C1  Z9K D   4      -8.168  28.479 -13.4150  0.00  0.00     0.000 C
ATOM     61  C2  Z9K D   4      -9.008  27.596 -12.4520  0.00  0.00     0.000 C
ATOM     62  C3  Z9K D   4      -8.024  26.366 -12.2350  0.00  0.00     0.000 C
ATOM     63  C4  Z9K D   4      -7.301  25.731 -13.4830  0.00  0.00     0.000 C
ATOM     64  C5  Z9K D   4      -7.088  26.663 -14.6860  0.00  0.00     0.000 C
ATOM     65  O5  Z9K D   4      -6.911  27.961 -14.0600  0.00  0.00     0.000 O
ATOM     66   O  Z9K D   4      -8.642  25.255 -11.5600  0.00  0.00     0.000 O
ATOM     67   C  Z9K D   4      -8.622  25.344 -10.1450  0.00  0.00     0.000 C
BRANCH 61 68
ATOM     68   O  Z9K D   4      -9.072  28.271 -11.2260  0.00  0.00     0.000 O
ATOM     69   O  Z9K D   4     -11.211  26.934 -11.6600  0.00  0.00     0.000 OA
ATOM     70   S  Z9K D   4     -10.628  28.242 -11.6740  0.00  0.00     0.000 S
ATOM     71   O  Z9K D   4     -10.844  29.243 -12.6740  0.00  0.00     0.000 OA
ATOM     72   O  Z9K D   4     -10.692  28.842 -10.3800  0.00  0.00     0.000 OA
ENDBRANCH 61 68
BRANCH 64 73
ATOM     73   C  Z9K D   4      -5.972  26.125 -15.6060  0.00  0.00     0.000 C
ATOM     74   O  Z9K D   4      -6.220  25.272 -16.5080  0.00  0.00     0.000 O
ATOM     75   O  Z9K D   4      -4.783  26.514 -15.5020  0.00  0.00     0.000 OA
ENDBRANCH 64 73
BRANCH 60 76
ATOM     76  O4  Z9L D   5      -8.605  29.199 -14.5810  0.00  0.00     0.000 O
BRANCH 76 80
ATOM     77  C1  Z9L D   5      -7.815  32.284 -16.9950  0.00  0.00     0.000 C
ATOM     78  C2  Z9L D   5      -7.627  30.948 -17.8630  0.00  0.00     0.000 C
ATOM     79  C3  Z9L D   5      -8.389  29.703 -17.0090  0.00  0.00     0.000 C
ATOM     80  C4  Z9L D   5      -7.912  30.038 -15.4680  0.00  0.00     0.000 C
ATOM     81  C5  Z9L D   5      -7.880  31.429 -14.6530  0.00  0.00     0.000 C
ATOM     82  O5  Z9L D   5      -7.410  32.425 -15.5730  0.00  0.00     0.000 O
ATOM     83   C  Z9L D   5      -9.500  33.935 -16.4210  0.00  0.00     0.000 C
ATOM     84   C  Z9L D   5      -9.500  33.935 -16.4210  0.00  0.00     0.000 C
BRANCH 78 85
ATOM     85   O  Z9L D   5      -8.275  31.130 -19.0810  0.00  0.00     0.000 O
ATOM     86   O  Z9L D   5      -7.400  31.249 -20.7930  0.00  0.00     0.000 OA
ATOM     87   S  Z9L D   5      -6.752  30.938 -19.5550  0.00  0.00     0.000 S
ATOM     88   O  Z9L D   5      -6.351  29.559 -19.6800  0.00  0.00     0.000 OA
ATOM     89   O  Z9L D   5      -5.870  32.028 -19.3100  0.00  0.00     0.000 OA
ENDBRANCH 78 85
BRANCH 79 90
ATOM     90   O  Z9L D   5      -7.782  28.475 -17.2540  0.00  0.00     0.000 O
ATOM     91   S  Z9L D   5      -9.277  28.122 -17.6750  0.00  0.00     0.000 S
ATOM     92   O  Z9L D   5      -9.993  28.871 -18.6730  0.00  0.00     0.000 OA
ATOM     93   O  Z9L D   5      -9.965  27.538 -16.5500  0.00  0.00     0.000 O
ATOM     94   O  Z9L D   5      -8.596  27.063 -18.3480  0.00  0.00     0.000 OA
ENDBRANCH 79 90
BRANCH 81 95
ATOM     95   C  Z9L D   5      -7.232  31.400 -13.1060  0.00  0.00     0.000 C
ATOM     96   S  Z9L D   5      -6.260  32.462 -11.7300  0.00  0.00     0.000 S
ATOM     97   O  Z9L D   5      -6.221  32.352 -13.3010  0.00  0.00     0.000 O
ATOM     98   O  Z9L D   5      -5.659  31.258 -11.2150  0.00  0.00     0.000 OA
ATOM     99   O  Z9L D   5      -7.462  32.986 -11.1760  0.00  0.00     0.000 OA
ATOM    100   O  Z9L D   5      -5.213  33.419 -11.9900  0.00  0.00     0.000 O
ENDBRANCH 81 95
ENDBRANCH 76 80
ENDBRANCH 60 76
ENDBRANCH 59 63
ENDBRANCH 37 59
ENDBRANCH 36 40
ENDBRANCH 23 36
ENDBRANCH 22 26
ENDBRANCH 1 22
TORSDOF 19
ENDMDL
MODEL 19
REMARK VINA RESULT:      -6.5     29.874     37.297
ROOT
ATOM      1  C1  Z9H D   1       8.228  41.995 -27.7450  0.00  0.00     0.000 C
ATOM      2  C2  Z9H D   1       9.233  42.584 -28.7640  0.00  0.00     0.000 C
ATOM      3  C3  Z9H D   1       8.207  43.075 -29.8310  0.00  0.00     0.000 C
ATOM      4  C4  Z9H D   1       7.133  42.001 -30.2830  0.00  0.00     0.000 C
ATOM      5  C5  Z9H D   1       6.314  41.115 -29.2630  0.00  0.00     0.000 C
ATOM      6  O5  Z9H D   1       7.253  41.000 -28.1640  0.00  0.00     0.000 O
ATOM      7   O  Z9H D   1       8.861  43.635 -30.9710  0.00  0.00     0.000 O
ATOM      8   C  Z9H D   1       8.950  45.069 -30.9880  0.00  0.00     0.000 C
ATOM      9   O  Z9H D   1       6.182  42.715 -31.0800  0.00  0.00     0.000 O
ATOM     10   C  Z9H D   1       6.353  42.601 -32.4960  0.00  0.00     0.000 C
ENDROOT
BRANCH 2 11
ATOM     11   O  Z9H D   1       9.664  43.749 -28.1080  0.00  0.00     0.000 O
ATOM     12   O  Z9H D   1      11.392  43.982 -27.3890  0.00  0.00     0.000 OA
ATOM     13   S  Z9H D   1      10.957  42.826 -28.0970  0.00  0.00     0.000 S
ATOM     14   O  Z9H D   1      11.463  42.742 -29.4380  0.00  0.00     0.000 OA
ATOM     15   O  Z9H D   1      10.807  41.708 -27.1940  0.00  0.00     0.000 O
ENDBRANCH 2 11
BRANCH 5 16
ATOM     16   C  Z9H D   1       5.581  39.765 -29.9260  0.00  0.00     0.000 C
ATOM     17   S  Z9H D   1       5.846  38.217 -31.1810  0.00  0.00     0.000 S
ATOM     18   O  Z9H D   1       6.733  38.967 -30.0590  0.00  0.00     0.000 O
ATOM     19   O  Z9H D   1       5.572  38.998 -32.3540  0.00  0.00     0.000 O
ATOM     20   O  Z9H D   1       4.883  37.375 -30.5630  0.00  0.00     0.000 OA
ATOM     21   O  Z9H D   1       7.063  37.470 -31.3070  0.00  0.00     0.000 OA
ENDBRANCH 5 16
BRANCH 1 22
ATOM     22  O4  GU1 D   2       7.342  42.985 -27.1070  0.00  0.00     0.000 O
BRANCH 22 26
ATOM     23  C1  GU1 D   2       5.227  43.860 -23.6810  0.00  0.00     0.000 C
ATOM     24  C2  GU1 D   2       6.491  43.041 -23.4620  0.00  0.00     0.000 C
ATOM     25  C3  GU1 D   2       7.352  43.118 -24.6890  0.00  0.00     0.000 C
ATOM     26  C4  GU1 D   2       6.565  42.727 -25.9310  0.00  0.00     0.000 C
ATOM     27  C5  GU1 D   2       5.265  43.534 -26.0030  0.00  0.00     0.000 C
ATOM     28  O5  GU1 D   2       4.509  43.367 -24.8060  0.00  0.00     0.000 O
ATOM     29   O  GU1 D   2       7.248  43.519 -22.3560  0.00  0.00     0.000 O
ATOM     30   C  GU1 D   2       7.010  42.811 -21.1480  0.00  0.00     0.000 C
ATOM     31   C  GU1 D   2       9.684  42.809 -24.1780  0.00  0.00     0.000 C
ATOM     32   O  GU1 D   2       8.443  42.204 -24.5330  0.00  0.00     0.000 O
BRANCH 27 33
ATOM     33   C  GU1 D   2       4.405  43.083 -27.1600  0.00  0.00     0.000 C
ATOM     34   O  GU1 D   2       3.813  42.028 -27.0630  0.00  0.00     0.000 OA
ATOM     35   O  GU1 D   2       4.309  43.769 -28.1660  0.00  0.00     0.000 O
ENDBRANCH 27 33
BRANCH 23 36
ATOM     36  O4  GU6 D   3       4.128  43.752 -22.7550  0.00  0.00     0.000 O
BRANCH 36 40
ATOM     37  C1  GU6 D   3       1.055  44.966 -20.3520  0.00  0.00     0.000 C
ATOM     38  C2  GU6 D   3       1.103  43.460 -20.5810  0.00  0.00     0.000 C
ATOM     39  C3  GU6 D   3       2.407  43.092 -21.2410  0.00  0.00     0.000 C
ATOM     40  C4  GU6 D   3       3.255  44.183 -21.7320  0.00  0.00     0.000 C
ATOM     41  C5  GU6 D   3       2.356  45.312 -22.3370  0.00  0.00     0.000 C
ATOM     42  O5  GU6 D   3       1.163  45.618 -21.6080  0.00  0.00     0.000 O
BRANCH 38 43
ATOM     43   O  GU6 D   3       0.968  42.766 -19.3560  0.00  0.00     0.000 O
ATOM     44   S  GU6 D   3      -0.470  42.445 -18.9700  0.00  0.00     0.000 S
ATOM     45   O  GU6 D   3      -1.066  43.640 -18.3500  0.00  0.00     0.000 OA
ATOM     46   O  GU6 D   3      -1.219  42.101 -20.1920  0.00  0.00     0.000 O
ATOM     47   O  GU6 D   3      -0.468  41.312 -18.0500  0.00  0.00     0.000 OA
ENDBRANCH 38 43
BRANCH 39 48
ATOM     48   O  GU6 D   3       2.902  41.768 -21.1810  0.00  0.00     0.000 O
ATOM     49   S  GU6 D   3       2.515  40.537 -22.0000  0.00  0.00     0.000 S
ATOM     50   O  GU6 D   3       2.653  40.821 -23.4330  0.00  0.00     0.000 OA
ATOM     51   O  GU6 D   3       3.487  39.526 -21.5620  0.00  0.00     0.000 OA
ATOM     52   O  GU6 D   3       1.114  40.175 -21.6880  0.00  0.00     0.000 O
ENDBRANCH 39 48
BRANCH 41 53
ATOM     53   C  GU6 D   3       2.577  46.135 -23.5770  0.00  0.00     0.000 C
ATOM     54   O  GU6 D   3       2.634  47.396 -22.9610  0.00  0.00     0.000 O
ATOM     55   S  GU6 D   3       2.741  48.672 -23.8070  0.00  0.00     0.000 S
ATOM     56   O  GU6 D   3       1.473  48.789 -24.5650  0.00  0.00     0.000 O
ATOM     57   O  GU6 D   3       2.915  49.819 -22.9040  0.00  0.00     0.000 OA
ATOM     58   O  GU6 D   3       3.893  48.498 -24.7200  0.00  0.00     0.000 OA
ENDBRANCH 41 53
BRANCH 37 59
ATOM     59  O4  Z9K D   4       1.887  45.689 -19.4200  0.00  0.00     0.000 O
BRANCH 59 63
ATOM     60  C1  Z9K D   4       0.610  46.531 -15.7990  0.00  0.00     0.000 C
ATOM     61  C2  Z9K D   4      -0.368  47.372 -16.6670  0.00  0.00     0.000 C
ATOM     62  C3  Z9K D   4       0.031  46.886 -18.1270  0.00  0.00     0.000 C
ATOM     63  C4  Z9K D   4       1.557  46.779 -18.5110  0.00  0.00     0.000 C
ATOM     64  C5  Z9K D   4       2.530  46.542 -17.3460  0.00  0.00     0.000 C
ATOM     65  O5  Z9K D   4       1.738  45.754 -16.4200  0.00  0.00     0.000 O
ATOM     66   O  Z9K D   4      -0.557  47.682 -19.1720  0.00  0.00     0.000 O
ATOM     67   C  Z9K D   4      -1.866  47.283 -19.5460  0.00  0.00     0.000 C
BRANCH 61 68
ATOM     68   O  Z9K D   4      -1.658  46.879 -16.4270  0.00  0.00     0.000 O
ATOM     69   O  Z9K D   4      -1.698  49.398 -16.8820  0.00  0.00     0.000 OA
ATOM     70   S  Z9K D   4      -1.767  48.394 -15.8630  0.00  0.00     0.000 S
ATOM     71   O  Z9K D   4      -1.137  48.460 -14.5800  0.00  0.00     0.000 OA
ATOM     72   O  Z9K D   4      -3.102  47.913 -15.7120  0.00  0.00     0.000 OA
ENDBRANCH 61 68
BRANCH 64 73
ATOM     73   C  Z9K D   4       3.867  45.966 -17.8570  0.00  0.00     0.000 C
ATOM     74   O  Z9K D   4       4.172  44.752 -17.6690  0.00  0.00     0.000 O
ATOM     75   O  Z9K D   4       4.697  46.672 -18.4800  0.00  0.00     0.000 OA
ENDBRANCH 64 73
BRANCH 60 76
ATOM     76  O4  Z9L D   5       1.374  46.948 -14.6550  0.00  0.00     0.000 O
BRANCH 76 80
ATOM     77  C1  Z9L D   5       2.517  45.845 -10.9880  0.00  0.00     0.000 C
ATOM     78  C2  Z9L D   5       3.850  46.029 -11.8590  0.00  0.00     0.000 C
ATOM     79  C3  Z9L D   5       3.415  46.920 -13.2300  0.00  0.00     0.000 C
ATOM     80  C4  Z9L D   5       1.983  46.209 -13.6270  0.00  0.00     0.000 C
ATOM     81  C5  Z9L D   5       0.717  45.806 -12.7130  0.00  0.00     0.000 C
ATOM     82  O5  Z9L D   5       1.253  45.257 -11.5000  0.00  0.00     0.000 O
ATOM     83   C  Z9L D   5       1.048  47.087  -9.5070  0.00  0.00     0.000 C
ATOM     84   C  Z9L D   5       1.048  47.087  -9.5070  0.00  0.00     0.000 C
BRANCH 78 85
ATOM     85   O  Z9L D   5       4.760  46.766 -11.1070  0.00  0.00     0.000 O
ATOM     86   O  Z9L D   5       6.334  46.047 -10.2600  0.00  0.00     0.000 OA
ATOM     87   S  Z9L D   5       5.465  45.322 -11.1360  0.00  0.00     0.000 S
ATOM     88   O  Z9L D   5       6.248  45.081 -12.3230  0.00  0.00     0.000 OA
ATOM     89   O  Z9L D   5       4.875  44.312 -10.3270  0.00  0.00     0.000 OA
ENDBRANCH 78 85
BRANCH 79 90
ATOM     90   O  Z9L D   5       4.222  46.603 -14.3190  0.00  0.00     0.000 O
ATOM     91   S  Z9L D   5       4.484  48.172 -14.2400  0.00  0.00     0.000 S
ATOM     92   O  Z9L D   5       4.969  48.813 -13.0470  0.00  0.00     0.000 OA
ATOM     93   O  Z9L D   5       3.579  48.852 -15.1320  0.00  0.00     0.000 O
ATOM     94   O  Z9L D   5       5.625  47.790 -15.0080  0.00  0.00     0.000 OA
ENDBRANCH 79 90
BRANCH 81 95
ATOM     95   C  Z9L D   5      -0.548  45.000 -13.4640  0.00  0.00     0.000 C
ATOM     96   S  Z9L D   5      -1.341  43.213 -13.8430  0.00  0.00     0.000 S
ATOM     97   O  Z9L D   5       0.117  43.795 -13.7280  0.00  0.00     0.000 O
ATOM     98   O  Z9L D   5      -1.890  43.710 -15.0790  0.00  0.00     0.000 OA
ATOM     99   O  Z9L D   5      -2.104  43.213 -12.6410  0.00  0.00     0.000 OA
ATOM    100   O  Z9L D   5      -0.603  42.007 -14.1250  0.00  0.00     0.000 O
ENDBRANCH 81 95
ENDBRANCH 76 80
ENDBRANCH 60 76
ENDBRANCH 59 63
ENDBRANCH 37 59
ENDBRANCH 36 40
ENDBRANCH 23 36
ENDBRANCH 22 26
ENDBRANCH 1 22
TORSDOF 19
ENDMDL
MODEL 20
REMARK VINA RESULT:      -6.4     40.930     46.706
ROOT
ATOM      1  C1  Z9H D   1       1.592   7.810 -49.3280  0.00  0.00     0.000 C
ATOM      2  C2  Z9H D   1       1.426   6.811 -48.1580  0.00  0.00     0.000 C
ATOM      3  C3  Z9H D   1       2.771   7.104 -47.4250  0.00  0.00     0.000 C
ATOM      4  C4  Z9H D   1       4.065   7.072 -48.3390  0.00  0.00     0.000 C
ATOM      5  C5  Z9H D   1       4.156   7.811 -49.7330  0.00  0.00     0.000 C
ATOM      6  O5  Z9H D   1       2.775   7.767 -50.1730  0.00  0.00     0.000 O
ATOM      7   O  Z9H D   1       2.945   6.257 -46.2870  0.00  0.00     0.000 O
ATOM      8   C  Z9H D   1       2.595   6.845 -45.0220  0.00  0.00     0.000 C
ATOM      9   O  Z9H D   1       5.129   7.574 -47.5240  0.00  0.00     0.000 O
ATOM     10   C  Z9H D   1       5.972   6.583 -46.9300  0.00  0.00     0.000 C
ENDROOT
BRANCH 2 11
ATOM     11   O  Z9H D   1       0.440   7.436 -47.3780  0.00  0.00     0.000 O
ATOM     12   O  Z9H D   1      -1.284   6.729 -47.0850  0.00  0.00     0.000 OA
ATOM     13   S  Z9H D   1      -0.259   6.084 -47.8340  0.00  0.00     0.000 S
ATOM     14   O  Z9H D   1       0.369   4.996 -47.1410  0.00  0.00     0.000 OA
ATOM     15   O  Z9H D   1      -0.579   6.097 -49.2430  0.00  0.00     0.000 O
ENDBRANCH 2 11
BRANCH 5 16
ATOM     16   C  Z9H D   1       5.403   7.300 -50.7260  0.00  0.00     0.000 C
ATOM     17   S  Z9H D   1       6.818   5.895 -50.9720  0.00  0.00     0.000 S
ATOM     18   O  Z9H D   1       5.275   5.918 -50.4980  0.00  0.00     0.000 O
ATOM     19   O  Z9H D   1       7.736   6.525 -50.0670  0.00  0.00     0.000 O
ATOM     20   O  Z9H D   1       6.899   6.031 -52.3840  0.00  0.00     0.000 OA
ATOM     21   O  Z9H D   1       6.644   4.503 -50.6760  0.00  0.00     0.000 OA
ENDBRANCH 5 16
BRANCH 1 22
ATOM     22  O4  GU1 D   2       1.597   9.230 -48.9340  0.00  0.00     0.000 O
BRANCH 22 26
ATOM     23  C1  GU1 D   2       0.305  12.962 -50.1080  0.00  0.00     0.000 C
ATOM     24  C2  GU1 D   2      -0.466  11.798 -50.7130  0.00  0.00     0.000 C
ATOM     25  C3  GU1 D   2      -0.171  10.548 -49.9360  0.00  0.00     0.000 C
ATOM     26  C4  GU1 D   2       1.329  10.315 -49.8310  0.00  0.00     0.000 C
ATOM     27  C5  GU1 D   2       2.022  11.578 -49.3120  0.00  0.00     0.000 C
ATOM     28  O5  GU1 D   2       1.703  12.696 -50.1360  0.00  0.00     0.000 O
ATOM     29   O  GU1 D   2      -1.871  12.019 -50.6830  0.00  0.00     0.000 O
ATOM     30   C  GU1 D   2      -2.399  12.532 -51.8980  0.00  0.00     0.000 C
ATOM     31   C  GU1 D   2      -1.977   8.962 -50.0540  0.00  0.00     0.000 C
ATOM     32   O  GU1 D   2      -0.760   9.440 -50.6220  0.00  0.00     0.000 O
BRANCH 27 33
ATOM     33   C  GU1 D   2       3.524  11.417 -49.3120  0.00  0.00     0.000 C
ATOM     34   O  GU1 D   2       4.108  11.454 -48.2490  0.00  0.00     0.000 OA
ATOM     35   O  GU1 D   2       4.130  11.250 -50.3580  0.00  0.00     0.000 O
ENDBRANCH 27 33
BRANCH 23 36
ATOM     36  O4  GU6 D   3       0.388  14.216 -50.8140  0.00  0.00     0.000 O
BRANCH 36 40
ATOM     37  C1  GU6 D   3       0.222  18.282 -50.4480  0.00  0.00     0.000 C
ATOM     38  C2  GU6 D   3       1.549  17.675 -50.0080  0.00  0.00     0.000 C
ATOM     39  C3  GU6 D   3       1.608  16.231 -50.4320  0.00  0.00     0.000 C
ATOM     40  C4  GU6 D   3       0.379  15.623 -50.9530  0.00  0.00     0.000 C
ATOM     41  C5  GU6 D   3      -0.851  16.158 -50.1480  0.00  0.00     0.000 C
ATOM     42  O5  GU6 D   3      -0.832  17.556 -49.8370  0.00  0.00     0.000 O
BRANCH 38 43
ATOM     43   O  GU6 D   3       2.633  18.388 -50.5710  0.00  0.00     0.000 O
ATOM     44   S  GU6 D   3       3.586  18.993 -49.5480  0.00  0.00     0.000 S
ATOM     45   O  GU6 D   3       3.012  20.261 -49.0660  0.00  0.00     0.000 OA
ATOM     46   O  GU6 D   3       3.722  18.056 -48.4190  0.00  0.00     0.000 O
ATOM     47   O  GU6 D   3       4.884  19.204 -50.1820  0.00  0.00     0.000 OA
ENDBRANCH 38 43
BRANCH 39 48
ATOM     48   O  GU6 D   3       2.847  15.557 -50.5450  0.00  0.00     0.000 O
ATOM     49   S  GU6 D   3       3.698  15.269 -51.7810  0.00  0.00     0.000 S
ATOM     50   O  GU6 D   3       3.996  16.518 -52.4920  0.00  0.00     0.000 OA
ATOM     51   O  GU6 D   3       4.918  14.677 -51.2150  0.00  0.00     0.000 OA
ATOM     52   O  GU6 D   3       2.958  14.345 -52.6680  0.00  0.00     0.000 O
ENDBRANCH 39 48
BRANCH 41 53
ATOM     53   C  GU6 D   3      -2.065  15.412 -49.6650  0.00  0.00     0.000 C
ATOM     54   O  GU6 D   3      -1.793  15.474 -48.2890  0.00  0.00     0.000 O
ATOM     55   S  GU6 D   3      -2.692  14.742 -47.2840  0.00  0.00     0.000 S
ATOM     56   O  GU6 D   3      -2.524  13.292 -47.5370  0.00  0.00     0.000 O
ATOM     57   O  GU6 D   3      -2.252  15.087 -45.9240  0.00  0.00     0.000 OA
ATOM     58   O  GU6 D   3      -4.084  15.170 -47.5470  0.00  0.00     0.000 OA
ENDBRANCH 41 53
BRANCH 37 59
ATOM     59  O4  Z9K D   4      -0.163  18.528 -51.8170  0.00  0.00     0.000 O
BRANCH 59 63
ATOM     60  C1  Z9K D   4      -0.023  21.113 -54.7740  0.00  0.00     0.000 C
ATOM     61  C2  Z9K D   4      -0.167  22.062 -53.5520  0.00  0.00     0.000 C
ATOM     62  C3  Z9K D   4      -0.038  21.027 -52.3510  0.00  0.00     0.000 C
ATOM     63  C4  Z9K D   4      -0.840  19.672 -52.4150  0.00  0.00     0.000 C
ATOM     64  C5  Z9K D   4      -1.179  19.154 -53.8220  0.00  0.00     0.000 C
ATOM     65  O5  Z9K D   4      -0.054  19.618 -54.6150  0.00  0.00     0.000 O
ATOM     66   O  Z9K D   4      -0.375  21.595 -51.0720  0.00  0.00     0.000 O
ATOM     67   C  Z9K D   4       0.697  22.266 -50.4290  0.00  0.00     0.000 C
BRANCH 61 68
ATOM     68   O  Z9K D   4       0.985  22.858 -53.5110  0.00  0.00     0.000 O
ATOM     69   O  Z9K D   4      -1.057  24.138 -52.6500  0.00  0.00     0.000 OA
ATOM     70   S  Z9K D   4      -0.176  23.960 -53.7650  0.00  0.00     0.000 S
ATOM     71   O  Z9K D   4      -0.565  23.918 -55.1410  0.00  0.00     0.000 OA
ATOM     72   O  Z9K D   4       0.992  24.769 -53.6250  0.00  0.00     0.000 OA
ENDBRANCH 61 68
BRANCH 64 73
ATOM     73   C  Z9K D   4      -1.492  17.643 -53.7900  0.00  0.00     0.000 C
ATOM     74   O  Z9K D   4      -0.720  16.803 -54.3370  0.00  0.00     0.000 O
ATOM     75   O  Z9K D   4      -2.514  17.192 -53.2180  0.00  0.00     0.000 OA
ENDBRANCH 64 73
BRANCH 60 76
ATOM     76  O4  Z9L D   5      -0.775  21.113 -56.0000  0.00  0.00     0.000 O
BRANCH 76 80
ATOM     77  C1  Z9L D   5      -0.420  20.925 -59.9760  0.00  0.00     0.000 C
ATOM     78  C2  Z9L D   5      -1.300  19.663 -59.5230  0.00  0.00     0.000 C
ATOM     79  C3  Z9L D   5      -1.832  19.982 -57.9490  0.00  0.00     0.000 C
ATOM     80  C4  Z9L D   5      -0.468  20.615 -57.2770  0.00  0.00     0.000 C
ATOM     81  C5  Z9L D   5       0.561  21.727 -57.8280  0.00  0.00     0.000 C
ATOM     82  O5  Z9L D   5       0.749  21.447 -59.2240  0.00  0.00     0.000 O
ATOM     83   C  Z9L D   5      -0.664  23.228 -60.7050  0.00  0.00     0.000 C
ATOM     84   C  Z9L D   5      -0.664  23.228 -60.7050  0.00  0.00     0.000 C
BRANCH 78 85
ATOM     85   O  Z9L D   5      -2.402  19.579 -60.3690  0.00  0.00     0.000 O
ATOM     86   O  Z9L D   5      -2.661  18.228 -61.7170  0.00  0.00     0.000 OA
ATOM     87   S  Z9L D   5      -1.595  18.246 -60.7630  0.00  0.00     0.000 S
ATOM     88   O  Z9L D   5      -1.855  17.129 -59.8890  0.00  0.00     0.000 OA
ATOM     89   O  Z9L D   5      -0.410  18.426 -61.5290  0.00  0.00     0.000 OA
ENDBRANCH 78 85
BRANCH 79 90
ATOM     90   O  Z9L D   5      -2.009  18.806 -57.2260  0.00  0.00     0.000 O
ATOM     91   S  Z9L D   5      -3.477  19.413 -57.1120  0.00  0.00     0.000 S
ATOM     92   O  Z9L D   5      -4.257  19.763 -58.2690  0.00  0.00     0.000 OA
ATOM     93   O  Z9L D   5      -3.590  20.164 -55.8870  0.00  0.00     0.000 O
ATOM     94   O  Z9L D   5      -3.770  18.051 -56.8010  0.00  0.00     0.000 OA
ENDBRANCH 79 90
BRANCH 81 95
ATOM     95   C  Z9L D   5       1.912  22.058 -56.8910  0.00  0.00     0.000 C
ATOM     96   S  Z9L D   5       3.881  21.805 -56.7290  0.00  0.00     0.000 S
ATOM     97   O  Z9L D   5       2.674  20.935 -57.2440  0.00  0.00     0.000 O
ATOM     98   O  Z9L D   5       3.777  21.852 -55.2930  0.00  0.00     0.000 OA
ATOM     99   O  Z9L D   5       4.169  22.974 -57.4900  0.00  0.00     0.000 OA
ATOM    100   O  Z9L D   5       4.610  20.616 -57.0950  0.00  0.00     0.000 O
ENDBRANCH 81 95
ENDBRANCH 76 80
ENDBRANCH 60 76
ENDBRANCH 59 63
ENDBRANCH 37 59
ENDBRANCH 36 40
ENDBRANCH 23 36
ENDBRANCH 22 26
ENDBRANCH 1 22
TORSDOF 19
ENDMDL
MODEL 21
REMARK VINA RESULT:      -6.4     41.360     46.737
ROOT
ATOM      1  C1  Z9H D   1       1.522   8.928 -49.1450  0.00  0.00     0.000 C
ATOM      2  C2  Z9H D   1       2.135   8.126 -47.9730  0.00  0.00     0.000 C
ATOM      3  C3  Z9H D   1       3.623   8.155 -48.4380  0.00  0.00     0.000 C
ATOM      4  C4  Z9H D   1       3.875   7.714 -49.9390  0.00  0.00     0.000 C
ATOM      5  C5  Z9H D   1       3.025   8.261 -51.1540  0.00  0.00     0.000 C
ATOM      6  O5  Z9H D   1       1.745   8.510 -50.5200  0.00  0.00     0.000 O
ATOM      7   O  Z9H D   1       4.465   7.412 -47.5540  0.00  0.00     0.000 O
ATOM      8   C  Z9H D   1       5.178   8.194 -46.5800  0.00  0.00     0.000 C
ATOM      9   O  Z9H D   1       5.246   8.021 -50.2100  0.00  0.00     0.000 O
ATOM     10   C  Z9H D   1       6.155   6.920 -50.1200  0.00  0.00     0.000 C
ENDROOT
BRANCH 2 11
ATOM     11   O  Z9H D   1       2.063   9.049 -46.9180  0.00  0.00     0.000 O
ATOM     12   O  Z9H D   1       0.986   8.825 -45.3860  0.00  0.00     0.000 OA
ATOM     13   S  Z9H D   1       1.105   7.875 -46.4400  0.00  0.00     0.000 S
ATOM     14   O  Z9H D   1       1.915   6.738 -46.1080  0.00  0.00     0.000 OA
ATOM     15   O  Z9H D   1      -0.112   7.830 -47.2170  0.00  0.00     0.000 O
ENDBRANCH 2 11
BRANCH 5 16
ATOM     16   C  Z9H D   1       3.140   7.361 -52.5610  0.00  0.00     0.000 C
ATOM     17   S  Z9H D   1       3.504   5.527 -53.2970  0.00  0.00     0.000 S
ATOM     18   O  Z9H D   1       2.692   6.133 -52.0400  0.00  0.00     0.000 O
ATOM     19   O  Z9H D   1       4.929   5.676 -53.2220  0.00  0.00     0.000 O
ATOM     20   O  Z9H D   1       2.763   5.713 -54.4950  0.00  0.00     0.000 OA
ATOM     21   O  Z9H D   1       3.061   4.304 -52.6930  0.00  0.00     0.000 OA
ENDBRANCH 5 16
BRANCH 1 22
ATOM     22  O4  GU1 D   2       1.949  10.336 -49.2210  0.00  0.00     0.000 O
BRANCH 22 26
ATOM     23  C1  GU1 D   2       0.728  14.102 -50.3610  0.00  0.00     0.000 C
ATOM     24  C2  GU1 D   2      -0.399  13.145 -50.0030  0.00  0.00     0.000 C
ATOM     25  C3  GU1 D   2       0.164  11.972 -49.2540  0.00  0.00     0.000 C
ATOM     26  C4  GU1 D   2       1.305  11.329 -50.0280  0.00  0.00     0.000 C
ATOM     27  C5  GU1 D   2       2.331  12.393 -50.4300  0.00  0.00     0.000 C
ATOM     28  O5  GU1 D   2       1.702  13.442 -51.1610  0.00  0.00     0.000 O
ATOM     29   O  GU1 D   2      -1.383  13.765 -49.1840  0.00  0.00     0.000 O
ATOM     30   C  GU1 D   2      -2.507  14.251 -49.9040  0.00  0.00     0.000 C
ATOM     31   C  GU1 D   2      -1.460  10.975 -47.7840  0.00  0.00     0.000 C
ATOM     32   O  GU1 D   2      -0.876  11.004 -49.0840  0.00  0.00     0.000 O
BRANCH 27 33
ATOM     33   C  GU1 D   2       3.415  11.806 -51.3030  0.00  0.00     0.000 C
ATOM     34   O  GU1 D   2       4.447  11.444 -50.7770  0.00  0.00     0.000 OA
ATOM     35   O  GU1 D   2       3.250  11.696 -52.5070  0.00  0.00     0.000 O
ENDBRANCH 27 33
BRANCH 23 36
ATOM     36  O4  GU6 D   3       0.492  15.179 -51.2890  0.00  0.00     0.000 O
BRANCH 36 40
ATOM     37  C1  GU6 D   3       0.518  18.865 -53.0530  0.00  0.00     0.000 C
ATOM     38  C2  GU6 D   3       0.589  18.907 -51.5320  0.00  0.00     0.000 C
ATOM     39  C3  GU6 D   3       0.847  17.521 -51.0000  0.00  0.00     0.000 C
ATOM     40  C4  GU6 D   3       0.762  16.402 -51.9450  0.00  0.00     0.000 C
ATOM     41  C5  GU6 D   3      -0.409  16.655 -52.9500  0.00  0.00     0.000 C
ATOM     42  O5  GU6 D   3      -0.539  17.997 -53.4330  0.00  0.00     0.000 O
BRANCH 38 43
ATOM     43   O  GU6 D   3       1.611  19.786 -51.1060  0.00  0.00     0.000 O
ATOM     44   S  GU6 D   3       1.136  21.198 -50.7900  0.00  0.00     0.000 S
ATOM     45   O  GU6 D   3       1.026  21.949 -52.0530  0.00  0.00     0.000 OA
ATOM     46   O  GU6 D   3      -0.191  21.117 -50.1530  0.00  0.00     0.000 O
ATOM     47   O  GU6 D   3       2.090  21.824 -49.8810  0.00  0.00     0.000 OA
ENDBRANCH 38 43
BRANCH 39 48
ATOM     48   O  GU6 D   3       1.378  17.329 -49.7030  0.00  0.00     0.000 O
ATOM     49   S  GU6 D   3       0.712  17.490 -48.3370  0.00  0.00     0.000 S
ATOM     50   O  GU6 D   3      -0.501  16.668 -48.2650  0.00  0.00     0.000 OA
ATOM     51   O  GU6 D   3       1.740  17.003 -47.4060  0.00  0.00     0.000 OA
ATOM     52   O  GU6 D   3       0.370  18.916 -48.1350  0.00  0.00     0.000 O
ENDBRANCH 39 48
BRANCH 41 53
ATOM     53   C  GU6 D   3      -1.415  15.678 -53.4980  0.00  0.00     0.000 C
ATOM     54   O  GU6 D   3      -2.513  16.552 -53.5630  0.00  0.00     0.000 O
ATOM     55   S  GU6 D   3      -3.898  16.031 -53.9680  0.00  0.00     0.000 S
ATOM     56   O  GU6 D   3      -4.339  15.109 -52.8950  0.00  0.00     0.000 O
ATOM     57   O  GU6 D   3      -4.815  17.176 -54.0780  0.00  0.00     0.000 OA
ATOM     58   O  GU6 D   3      -3.740  15.315 -55.2530  0.00  0.00     0.000 OA
ENDBRANCH 41 53
BRANCH 37 59
ATOM     59  O4  Z9K D   4       1.633  18.591 -53.9280  0.00  0.00     0.000 O
BRANCH 59 63
ATOM     60  C1  Z9K D   4       0.996  21.360 -56.6430  0.00  0.00     0.000 C
ATOM     61  C2  Z9K D   4       0.437  20.100 -57.3610  0.00  0.00     0.000 C
ATOM     62  C3  Z9K D   4       0.527  19.024 -56.1940  0.00  0.00     0.000 C
ATOM     63  C4  Z9K D   4       1.841  18.938 -55.3280  0.00  0.00     0.000 C
ATOM     64  C5  Z9K D   4       2.668  20.229 -55.2270  0.00  0.00     0.000 C
ATOM     65  O5  Z9K D   4       1.655  21.267 -55.2940  0.00  0.00     0.000 O
ATOM     66   O  Z9K D   4       0.292  17.677 -56.6430  0.00  0.00     0.000 O
ATOM     67   C  Z9K D   4      -1.076  17.306 -56.6940  0.00  0.00     0.000 C
BRANCH 61 68
ATOM     68   O  Z9K D   4      -0.928  20.326 -57.5840  0.00  0.00     0.000 O
ATOM     69   O  Z9K D   4       0.077  18.844 -59.4130  0.00  0.00     0.000 OA
ATOM     70   S  Z9K D   4      -0.363  20.169 -59.0940  0.00  0.00     0.000 S
ATOM     71   O  Z9K D   4       0.294  21.382 -59.4750  0.00  0.00     0.000 OA
ATOM     72   O  Z9K D   4      -1.768  20.303 -59.3040  0.00  0.00     0.000 OA
ENDBRANCH 61 68
BRANCH 64 73
ATOM     73   C  Z9K D   4       3.606  20.186 -54.0020  0.00  0.00     0.000 C
ATOM     74   O  Z9K D   4       4.262  19.143 -53.7150  0.00  0.00     0.000 O
ATOM     75   O  Z9K D   4       3.757  21.180 -53.2500  0.00  0.00     0.000 OA
ENDBRANCH 64 73
BRANCH 60 76
ATOM     76  O4  Z9L D   5       1.913  22.345 -57.1500  0.00  0.00     0.000 O
BRANCH 76 80
ATOM     77  C1  Z9L D   5       2.260  26.273 -57.8000  0.00  0.00     0.000 C
ATOM     78  C2  Z9L D   5       3.505  25.836 -56.8880  0.00  0.00     0.000 C
ATOM     79  C3  Z9L D   5       3.619  24.152 -56.9960  0.00  0.00     0.000 C
ATOM     80  C4  Z9L D   5       2.032  23.721 -56.8940  0.00  0.00     0.000 C
ATOM     81  C5  Z9L D   5       0.729  24.311 -57.6400  0.00  0.00     0.000 C
ATOM     82  O5  Z9L D   5       0.882  25.738 -57.6520  0.00  0.00     0.000 O
ATOM     83   C  Z9L D   5       1.636  26.548 -60.1290  0.00  0.00     0.000 C
ATOM     84   C  Z9L D   5       1.636  26.548 -60.1290  0.00  0.00     0.000 C
BRANCH 78 85
ATOM     85   O  Z9L D   5       4.655  26.406 -57.4250  0.00  0.00     0.000 O
ATOM     86   O  Z9L D   5       5.577  27.933 -56.6970  0.00  0.00     0.000 OA
ATOM     87   S  Z9L D   5       4.470  27.267 -56.0810  0.00  0.00     0.000 S
ATOM     88   O  Z9L D   5       5.020  26.637 -54.9060  0.00  0.00     0.000 OA
ATOM     89   O  Z9L D   5       3.414  28.220 -56.0790  0.00  0.00     0.000 OA
ENDBRANCH 78 85
BRANCH 79 90
ATOM     90   O  Z9L D   5       4.156  23.604 -55.8340  0.00  0.00     0.000 O
ATOM     91   S  Z9L D   5       5.214  23.068 -56.8970  0.00  0.00     0.000 S
ATOM     92   O  Z9L D   5       5.940  23.949 -57.7740  0.00  0.00     0.000 OA
ATOM     93   O  Z9L D   5       4.833  21.745 -57.3240  0.00  0.00     0.000 O
ATOM     94   O  Z9L D   5       5.992  22.920 -55.7090  0.00  0.00     0.000 OA
ENDBRANCH 79 90
BRANCH 81 95
ATOM     95   C  Z9L D   5      -0.760  23.670 -57.2080  0.00  0.00     0.000 C
ATOM     96   S  Z9L D   5      -2.428  23.990 -56.1680  0.00  0.00     0.000 S
ATOM     97   O  Z9L D   5      -0.900  24.317 -55.9720  0.00  0.00     0.000 O
ATOM     98   O  Z9L D   5      -2.578  22.573 -55.9590  0.00  0.00     0.000 OA
ATOM     99   O  Z9L D   5      -3.069  24.651 -57.2540  0.00  0.00     0.000 OA
ATOM    100   O  Z9L D   5      -2.508  24.650 -54.8880  0.00  0.00     0.000 O
ENDBRANCH 81 95
ENDBRANCH 76 80
ENDBRANCH 60 76
ENDBRANCH 59 63
ENDBRANCH 37 59
ENDBRANCH 36 40
ENDBRANCH 23 36
ENDBRANCH 22 26
ENDBRANCH 1 22
TORSDOF 19
ENDMDL
MODEL 22
REMARK VINA RESULT:      -6.4      9.429     14.530
ROOT
ATOM      1  C1  Z9H D   1      29.717  43.871 -15.8610  0.00  0.00     0.000 C
ATOM      2  C2  Z9H D   1      30.259  45.319 -15.9250  0.00  0.00     0.000 C
ATOM      3  C3  Z9H D   1      30.141  45.667 -14.4090  0.00  0.00     0.000 C
ATOM      4  C4  Z9H D   1      28.734  45.358 -13.7490  0.00  0.00     0.000 C
ATOM      5  C5  Z9H D   1      27.970  43.988 -13.9450  0.00  0.00     0.000 C
ATOM      6  O5  Z9H D   1      28.419  43.595 -15.2660  0.00  0.00     0.000 O
ATOM      7   O  Z9H D   1      30.526  47.018 -14.1480  0.00  0.00     0.000 O
ATOM      8   C  Z9H D   1      31.870  47.193 -13.6680  0.00  0.00     0.000 C
ATOM      9   O  Z9H D   1      28.916  45.542 -12.3410  0.00  0.00     0.000 O
ATOM     10   C  Z9H D   1      28.472  46.799 -11.8200  0.00  0.00     0.000 C
ENDROOT
BRANCH 2 11
ATOM     11   O  Z9H D   1      31.629  45.109 -16.1460  0.00  0.00     0.000 O
ATOM     12   O  Z9H D   1      32.540  45.624 -17.7150  0.00  0.00     0.000 OA
ATOM     13   S  Z9H D   1      31.162  45.874 -17.4570  0.00  0.00     0.000 S
ATOM     14   O  Z9H D   1      30.874  47.235 -17.1070  0.00  0.00     0.000 OA
ATOM     15   O  Z9H D   1      30.333  45.038 -18.2960  0.00  0.00     0.000 O
ENDBRANCH 2 11
BRANCH 5 16
ATOM     16   C  Z9H D   1      26.343  44.022 -13.5530  0.00  0.00     0.000 C
ATOM     17   S  Z9H D   1      24.711  45.192 -13.4670  0.00  0.00     0.000 S
ATOM     18   O  Z9H D   1      25.938  44.984 -14.4960  0.00  0.00     0.000 O
ATOM     19   O  Z9H D   1      25.074  45.769 -12.2050  0.00  0.00     0.000 O
ATOM     20   O  Z9H D   1      23.776  44.129 -13.5990  0.00  0.00     0.000 OA
ATOM     21   O  Z9H D   1      24.375  46.192 -14.4380  0.00  0.00     0.000 OA
ENDBRANCH 5 16
BRANCH 1 22
ATOM     22  O4  GU1 D   2      30.562  42.926 -15.1080  0.00  0.00     0.000 O
BRANCH 22 26
ATOM     23  C1  GU1 D   2      32.047  39.086 -14.9680  0.00  0.00     0.000 C
ATOM     24  C2  GU1 D   2      31.954  39.686 -16.3630  0.00  0.00     0.000 C
ATOM     25  C3  GU1 D   2      31.776  41.172 -16.2550  0.00  0.00     0.000 C
ATOM     26  C4  GU1 D   2      30.602  41.515 -15.3500  0.00  0.00     0.000 C
ATOM     27  C5  GU1 D   2      30.739  40.781 -14.0120  0.00  0.00     0.000 C
ATOM     28  O5  GU1 D   2      30.869  39.378 -14.2250  0.00  0.00     0.000 O
ATOM     29   O  GU1 D   2      33.126  39.433 -17.1300  0.00  0.00     0.000 O
ATOM     30   C  GU1 D   2      33.016  38.311 -17.9940  0.00  0.00     0.000 C
ATOM     31   C  GU1 D   2      32.625  42.329 -18.1880  0.00  0.00     0.000 C
ATOM     32   O  GU1 D   2      31.513  41.692 -17.5620  0.00  0.00     0.000 O
BRANCH 27 33
ATOM     33   C  GU1 D   2      29.528  41.006 -13.1390  0.00  0.00     0.000 C
ATOM     34   O  GU1 D   2      28.453  40.590 -13.5220  0.00  0.00     0.000 OA
ATOM     35   O  GU1 D   2      29.632  41.589 -12.0710  0.00  0.00     0.000 O
ENDBRANCH 27 33
BRANCH 23 36
ATOM     36  O4  GU6 D   3      31.974  37.658 -14.7910  0.00  0.00     0.000 O
BRANCH 36 40
ATOM     37  C1  GU6 D   3      33.317  33.804 -14.9920  0.00  0.00     0.000 C
ATOM     38  C2  GU6 D   3      32.258  34.035 -13.9210  0.00  0.00     0.000 C
ATOM     39  C3  GU6 D   3      31.640  35.396 -14.1080  0.00  0.00     0.000 C
ATOM     40  C4  GU6 D   3      32.271  36.305 -15.0710  0.00  0.00     0.000 C
ATOM     41  C5  GU6 D   3      33.826  36.148 -14.9960  0.00  0.00     0.000 C
ATOM     42  O5  GU6 D   3      34.313  34.808 -14.8660  0.00  0.00     0.000 O
BRANCH 38 43
ATOM     43   O  GU6 D   3      31.258  33.037 -13.9880  0.00  0.00     0.000 O
ATOM     44   S  GU6 D   3      31.420  31.915 -12.9710  0.00  0.00     0.000 S
ATOM     45   O  GU6 D   3      32.405  30.951 -13.4910  0.00  0.00     0.000 OA
ATOM     46   O  GU6 D   3      31.917  32.491 -11.7090  0.00  0.00     0.000 O
ATOM     47   O  GU6 D   3      30.121  31.284 -12.7560  0.00  0.00     0.000 OA
ENDBRANCH 38 43
BRANCH 39 48
ATOM     48   O  GU6 D   3      30.373  35.701 -13.5560  0.00  0.00     0.000 O
ATOM     49   S  GU6 D   3      30.001  36.143 -12.1410  0.00  0.00     0.000 S
ATOM     50   O  GU6 D   3      30.762  37.341 -11.7690  0.00  0.00     0.000 OA
ATOM     51   O  GU6 D   3      28.566  36.438 -12.2510  0.00  0.00     0.000 OA
ATOM     52   O  GU6 D   3      30.300  35.041 -11.1990  0.00  0.00     0.000 O
ENDBRANCH 39 48
BRANCH 41 53
ATOM     53   C  GU6 D   3      34.889  37.212 -15.0560  0.00  0.00     0.000 C
ATOM     54   O  GU6 D   3      35.542  36.764 -16.2160  0.00  0.00     0.000 O
ATOM     55   S  GU6 D   3      36.828  37.447 -16.6990  0.00  0.00     0.000 S
ATOM     56   O  GU6 D   3      37.864  37.180 -15.6740  0.00  0.00     0.000 O
ATOM     57   O  GU6 D   3      37.212  36.863 -17.9920  0.00  0.00     0.000 OA
ATOM     58   O  GU6 D   3      36.543  38.896 -16.8020  0.00  0.00     0.000 OA
ENDBRANCH 41 53
BRANCH 37 59
ATOM     59  O4  Z9K D   4      33.050  33.638 -16.4000  0.00  0.00     0.000 O
BRANCH 59 63
ATOM     60  C1  Z9K D   4      31.867  29.905 -16.7340  0.00  0.00     0.000 C
ATOM     61  C2  Z9K D   4      33.402  29.752 -16.9210  0.00  0.00     0.000 C
ATOM     62  C3  Z9K D   4      33.893  31.231 -16.6030  0.00  0.00     0.000 C
ATOM     63  C4  Z9K D   4      33.123  32.450 -17.2400  0.00  0.00     0.000 C
ATOM     64  C5  Z9K D   4      31.648  32.206 -17.5940  0.00  0.00     0.000 C
ATOM     65  O5  Z9K D   4      31.226  31.257 -16.5780  0.00  0.00     0.000 O
ATOM     66   O  Z9K D   4      35.276  31.454 -16.9320  0.00  0.00     0.000 O
ATOM     67   C  Z9K D   4      36.188  31.079 -15.9130  0.00  0.00     0.000 C
BRANCH 61 68
ATOM     68   O  Z9K D   4      33.866  28.949 -15.8710  0.00  0.00     0.000 O
ATOM     69   O  Z9K D   4      35.250  28.590 -17.9940  0.00  0.00     0.000 OA
ATOM     70   S  Z9K D   4      34.217  28.042 -17.1670  0.00  0.00     0.000 S
ATOM     71   O  Z9K D   4      33.019  27.412 -17.6320  0.00  0.00     0.000 OA
ATOM     72   O  Z9K D   4      34.772  27.277 -16.0970  0.00  0.00     0.000 OA
ENDBRANCH 61 68
BRANCH 64 73
ATOM     73   C  Z9K D   4      30.886  33.542 -17.7230  0.00  0.00     0.000 C
ATOM     74   O  Z9K D   4      31.125  34.343 -18.6720  0.00  0.00     0.000 O
ATOM     75   O  Z9K D   4      30.000  33.880 -16.9000  0.00  0.00     0.000 OA
ENDBRANCH 64 73
BRANCH 60 76
ATOM     76  O4  Z9L D   5      30.809  29.371 -17.5480  0.00  0.00     0.000 O
BRANCH 76 80
ATOM     77  C1  Z9L D   5      27.310  27.441 -17.4680  0.00  0.00     0.000 C
ATOM     78  C2  Z9L D   5      27.027  28.903 -18.0630  0.00  0.00     0.000 C
ATOM     79  C3  Z9L D   5      28.525  29.538 -18.5230  0.00  0.00     0.000 C
ATOM     80  C4  Z9L D   5      29.467  29.080 -17.2520  0.00  0.00     0.000 C
ATOM     81  C5  Z9L D   5      29.594  27.664 -16.4910  0.00  0.00     0.000 C
ATOM     82  O5  Z9L D   5      28.258  27.154 -16.3610  0.00  0.00     0.000 O
ATOM     83   C  Z9L D   5      27.857  25.187 -18.1880  0.00  0.00     0.000 C
ATOM     84   C  Z9L D   5      27.857  25.187 -18.1880  0.00  0.00     0.000 C
BRANCH 78 85
ATOM     85   O  Z9L D   5      26.224  28.762 -19.1910  0.00  0.00     0.000 O
ATOM     86   O  Z9L D   5      24.383  29.312 -19.3160  0.00  0.00     0.000 OA
ATOM     87   S  Z9L D   5      25.246  29.568 -18.2030  0.00  0.00     0.000 S
ATOM     88   O  Z9L D   5      25.457  30.994 -18.2140  0.00  0.00     0.000 OA
ATOM     89   O  Z9L D   5      24.691  28.831 -17.1210  0.00  0.00     0.000 OA
ENDBRANCH 78 85
BRANCH 79 90
ATOM     90   O  Z9L D   5      28.539  30.927 -18.4240  0.00  0.00     0.000 O
ATOM     91   S  Z9L D   5      28.882  30.766 -19.9710  0.00  0.00     0.000 S
ATOM     92   O  Z9L D   5      28.034  30.038 -20.8770  0.00  0.00     0.000 OA
ATOM     93   O  Z9L D   5      30.313  30.782 -20.1460  0.00  0.00     0.000 O
ATOM     94   O  Z9L D   5      28.442  32.124 -19.9780  0.00  0.00     0.000 OA
ENDBRANCH 79 90
BRANCH 81 95
ATOM     95   C  Z9L D   5      30.609  27.596 -15.1570  0.00  0.00     0.000 C
ATOM     96   S  Z9L D   5      30.715  27.167 -13.2150  0.00  0.00     0.000 S
ATOM     97   O  Z9L D   5      29.642  27.820 -14.1660  0.00  0.00     0.000 O
ATOM     98   O  Z9L D   5      31.768  28.136 -13.0510  0.00  0.00     0.000 OA
ATOM     99   O  Z9L D   5      31.002  25.794 -13.4570  0.00  0.00     0.000 OA
ATOM    100   O  Z9L D   5      29.691  27.438 -12.2360  0.00  0.00     0.000 O
ENDBRANCH 81 95
ENDBRANCH 76 80
ENDBRANCH 60 76
ENDBRANCH 59 63
ENDBRANCH 37 59
ENDBRANCH 36 40
ENDBRANCH 23 36
ENDBRANCH 22 26
ENDBRANCH 1 22
TORSDOF 19
ENDMDL
MODEL 23
REMARK VINA RESULT:      -6.3     31.675     38.972
ROOT
ATOM      1  C1  Z9H D   1      28.453  18.527 -52.0340  0.00  0.00     0.000 C
ATOM      2  C2  Z9H D   1      29.198  17.176 -51.9180  0.00  0.00     0.000 C
ATOM      3  C3  Z9H D   1      28.205  16.302 -52.7440  0.00  0.00     0.000 C
ATOM      4  C4  Z9H D   1      26.682  16.424 -52.3250  0.00  0.00     0.000 C
ATOM      5  C5  Z9H D   1      25.958  17.810 -52.0920  0.00  0.00     0.000 C
ATOM      6  O5  Z9H D   1      27.059  18.635 -51.6340  0.00  0.00     0.000 O
ATOM      7   O  Z9H D   1      28.606  14.931 -52.7690  0.00  0.00     0.000 O
ATOM      8   C  Z9H D   1      29.316  14.518 -53.9490  0.00  0.00     0.000 C
ATOM      9   O  Z9H D   1      25.944  15.726 -53.3330  0.00  0.00     0.000 O
ATOM     10   C  Z9H D   1      25.549  14.393 -52.9970  0.00  0.00     0.000 C
ENDROOT
BRANCH 2 11
ATOM     11   O  Z9H D   1      30.300  17.377 -52.7640  0.00  0.00     0.000 O
ATOM     12   O  Z9H D   1      32.095  17.380 -52.1840  0.00  0.00     0.000 OA
ATOM     13   S  Z9H D   1      30.971  17.130 -51.3450  0.00  0.00     0.000 S
ATOM     14   O  Z9H D   1      30.801  15.747 -51.0000  0.00  0.00     0.000 OA
ATOM     15   O  Z9H D   1      30.753  18.243 -50.4510  0.00  0.00     0.000 O
ENDBRANCH 2 11
BRANCH 5 16
ATOM     16   C  Z9H D   1      24.521  17.724 -51.2390  0.00  0.00     0.000 C
ATOM     17   S  Z9H D   1      23.003  18.808 -50.4910  0.00  0.00     0.000 S
ATOM     18   O  Z9H D   1      23.868  18.809 -51.8540  0.00  0.00     0.000 O
ATOM     19   O  Z9H D   1      23.730  19.191 -49.3150  0.00  0.00     0.000 O
ATOM     20   O  Z9H D   1      22.056  17.748 -50.5120  0.00  0.00     0.000 OA
ATOM     21   O  Z9H D   1      22.409  19.937 -51.1450  0.00  0.00     0.000 OA
ENDBRANCH 5 16
BRANCH 1 22
ATOM     22  O4  GU1 D   2      28.384  19.081 -53.3970  0.00  0.00     0.000 O
BRANCH 22 26
ATOM     23  C1  GU1 D   2      28.671  22.507 -55.6670  0.00  0.00     0.000 C
ATOM     24  C2  GU1 D   2      29.622  22.443 -54.4810  0.00  0.00     0.000 C
ATOM     25  C3  GU1 D   2      29.697  21.031 -53.9790  0.00  0.00     0.000 C
ATOM     26  C4  GU1 D   2      28.307  20.480 -53.6940  0.00  0.00     0.000 C
ATOM     27  C5  GU1 D   2      27.402  20.686 -54.9120  0.00  0.00     0.000 C
ATOM     28  O5  GU1 D   2      27.375  22.061 -55.2860  0.00  0.00     0.000 O
ATOM     29   O  GU1 D   2      30.936  22.862 -54.8290  0.00  0.00     0.000 O
ATOM     30   C  GU1 D   2      31.209  24.220 -54.5160  0.00  0.00     0.000 C
ATOM     31   C  GU1 D   2      31.794  20.567 -52.8930  0.00  0.00     0.000 C
ATOM     32   O  GU1 D   2      30.450  21.023 -52.7620  0.00  0.00     0.000 O
BRANCH 27 33
ATOM     33   C  GU1 D   2      25.983  20.259 -54.6170  0.00  0.00     0.000 C
ATOM     34   O  GU1 D   2      25.343  20.901 -53.8100  0.00  0.00     0.000 OA
ATOM     35   O  GU1 D   2      25.496  19.293 -55.1830  0.00  0.00     0.000 O
ENDBRANCH 27 33
BRANCH 23 36
ATOM     36  O4  GU6 D   3      28.236  23.784 -56.1750  0.00  0.00     0.000 O
BRANCH 36 40
ATOM     37  C1  GU6 D   3      28.916  27.310 -58.1240  0.00  0.00     0.000 C
ATOM     38  C2  GU6 D   3      29.919  26.213 -58.4610  0.00  0.00     0.000 C
ATOM     39  C3  GU6 D   3      29.431  24.897 -57.9150  0.00  0.00     0.000 C
ATOM     40  C4  GU6 D   3      28.274  24.921 -57.0130  0.00  0.00     0.000 C
ATOM     41  C5  GU6 D   3      28.360  26.177 -56.0840  0.00  0.00     0.000 C
ATOM     42  O5  GU6 D   3      28.790  27.389 -56.7130  0.00  0.00     0.000 O
BRANCH 38 43
ATOM     43   O  GU6 D   3      30.100  26.118 -59.8610  0.00  0.00     0.000 O
ATOM     44   S  GU6 D   3      31.548  26.240 -60.3170  0.00  0.00     0.000 S
ATOM     45   O  GU6 D   3      31.902  27.669 -60.3760  0.00  0.00     0.000 OA
ATOM     46   O  GU6 D   3      32.411  25.562 -59.3330  0.00  0.00     0.000 O
ATOM     47   O  GU6 D   3      31.685  25.604 -61.6240  0.00  0.00     0.000 OA
ENDBRANCH 38 43
BRANCH 39 48
ATOM     48   O  GU6 D   3      29.915  23.672 -58.4300  0.00  0.00     0.000 O
ATOM     49   S  GU6 D   3      29.323  22.755 -59.5000  0.00  0.00     0.000 S
ATOM     50   O  GU6 D   3      29.093  23.506 -60.7390  0.00  0.00     0.000 OA
ATOM     51   O  GU6 D   3      30.367  21.738 -59.6810  0.00  0.00     0.000 OA
ATOM     52   O  GU6 D   3      28.046  22.198 -59.0000  0.00  0.00     0.000 O
ENDBRANCH 39 48
BRANCH 41 53
ATOM     53   C  GU6 D   3      28.040  26.295 -54.6190  0.00  0.00     0.000 C
ATOM     54   O  GU6 D   3      26.661  26.044 -54.7040  0.00  0.00     0.000 O
ATOM     55   S  GU6 D   3      25.771  26.154 -53.4590  0.00  0.00     0.000 S
ATOM     56   O  GU6 D   3      25.771  27.580 -53.0580  0.00  0.00     0.000 O
ATOM     57   O  GU6 D   3      24.413  25.714 -53.8130  0.00  0.00     0.000 OA
ATOM     58   O  GU6 D   3      26.378  25.306 -52.4090  0.00  0.00     0.000 OA
ENDBRANCH 41 53
BRANCH 37 59
ATOM     59  O4  Z9K D   4      27.589  27.418 -58.6800  0.00  0.00     0.000 O
BRANCH 59 63
ATOM     60  C1  Z9K D   4      24.772  28.187 -61.3110  0.00  0.00     0.000 C
ATOM     61  C2  Z9K D   4      26.019  28.778 -62.0240  0.00  0.00     0.000 C
ATOM     62  C3  Z9K D   4      27.179  28.303 -61.0450  0.00  0.00     0.000 C
ATOM     63  C4  Z9K D   4      26.988  28.470 -59.4900  0.00  0.00     0.000 C
ATOM     64  C5  Z9K D   4      25.537  28.485 -58.9860  0.00  0.00     0.000 C
ATOM     65  O5  Z9K D   4      24.861  27.609 -59.9250  0.00  0.00     0.000 O
ATOM     66   O  Z9K D   4      28.450  28.916 -61.3300  0.00  0.00     0.000 O
ATOM     67   C  Z9K D   4      29.209  28.254 -62.3290  0.00  0.00     0.000 C
BRANCH 61 68
ATOM     68   O  Z9K D   4      26.190  28.061 -63.2150  0.00  0.00     0.000 O
ATOM     69   O  Z9K D   4      26.920  30.498 -63.4890  0.00  0.00     0.000 OA
ATOM     70   S  Z9K D   4      25.880  29.553 -63.7640  0.00  0.00     0.000 S
ATOM     71   O  Z9K D   4      24.475  29.803 -63.6660  0.00  0.00     0.000 OA
ATOM     72   O  Z9K D   4      26.152  28.833 -64.9670  0.00  0.00     0.000 OA
ENDBRANCH 61 68
BRANCH 64 73
ATOM     73   C  Z9K D   4      25.475  28.150 -57.4810  0.00  0.00     0.000 C
ATOM     74   O  Z9K D   4      25.893  28.967 -56.6090  0.00  0.00     0.000 O
ATOM     75   O  Z9K D   4      25.005  27.063 -57.0640  0.00  0.00     0.000 OA
ENDBRANCH 64 73
BRANCH 60 76
ATOM     76  O4  Z9L D   5      23.490  28.801 -61.0950  0.00  0.00     0.000 O
BRANCH 76 80
ATOM     77  C1  Z9L D   5      19.551  28.163 -61.3320  0.00  0.00     0.000 C
ATOM     78  C2  Z9L D   5      19.883  28.490 -59.7970  0.00  0.00     0.000 C
ATOM     79  C3  Z9L D   5      21.419  29.199 -59.7730  0.00  0.00     0.000 C
ATOM     80  C4  Z9L D   5      22.224  28.244 -60.8470  0.00  0.00     0.000 C
ATOM     81  C5  Z9L D   5      21.801  27.715 -62.3100  0.00  0.00     0.000 C
ATOM     82  O5  Z9L D   5      20.416  27.347 -62.2220  0.00  0.00     0.000 O
ATOM     83   C  Z9L D   5      18.893  29.264 -63.3930  0.00  0.00     0.000 C
ATOM     84   C  Z9L D   5      18.893  29.264 -63.3930  0.00  0.00     0.000 C
BRANCH 78 85
ATOM     85   O  Z9L D   5      18.947  29.413 -59.3410  0.00  0.00     0.000 O
ATOM     86   O  Z9L D   5      17.540  29.033 -58.0810  0.00  0.00     0.000 OA
ATOM     87   S  Z9L D   5      18.578  28.122 -58.4570  0.00  0.00     0.000 S
ATOM     88   O  Z9L D   5      19.392  27.975 -57.2760  0.00  0.00     0.000 OA
ATOM     89   O  Z9L D   5      17.918  27.060 -59.1340  0.00  0.00     0.000 OA
ENDBRANCH 78 85
BRANCH 79 90
ATOM     90   O  Z9L D   5      22.080  28.933 -58.5770  0.00  0.00     0.000 O
ATOM     91   S  Z9L D   5      22.088  30.525 -58.5390  0.00  0.00     0.000 S
ATOM     92   O  Z9L D   5      20.881  31.304 -58.6280  0.00  0.00     0.000 OA
ATOM     93   O  Z9L D   5      23.326  31.010 -59.0960  0.00  0.00     0.000 O
ATOM     94   O  Z9L D   5      22.323  30.265 -57.1550  0.00  0.00     0.000 OA
ENDBRANCH 79 90
BRANCH 81 95
ATOM     95   C  Z9L D   5      22.858  26.668 -63.0850  0.00  0.00     0.000 C
ATOM     96   S  Z9L D   5      23.146  25.559 -64.7140  0.00  0.00     0.000 S
ATOM     97   O  Z9L D   5      21.909  25.939 -63.8160  0.00  0.00     0.000 O
ATOM     98   O  Z9L D   5      23.943  24.633 -63.9510  0.00  0.00     0.000 OA
ATOM     99   O  Z9L D   5      23.744  26.634 -65.4320  0.00  0.00     0.000 OA
ATOM    100   O  Z9L D   5      22.130  24.815 -65.4160  0.00  0.00     0.000 O
ENDBRANCH 81 95
ENDBRANCH 76 80
ENDBRANCH 60 76
ENDBRANCH 59 63
ENDBRANCH 37 59
ENDBRANCH 36 40
ENDBRANCH 23 36
ENDBRANCH 22 26
ENDBRANCH 1 22
TORSDOF 19
ENDMDL
MODEL 24
REMARK VINA RESULT:      -6.3     32.186     39.524
ROOT
ATOM      1  C1  Z9H D   1       3.450  43.098 -22.2810  0.00  0.00     0.000 C
ATOM      2  C2  Z9H D   1       4.313  42.201 -23.2000  0.00  0.00     0.000 C
ATOM      3  C3  Z9H D   1       5.488  43.197 -23.4440  0.00  0.00     0.000 C
ATOM      4  C4  Z9H D   1       5.060  44.652 -23.9040  0.00  0.00     0.000 C
ATOM      5  C5  Z9H D   1       3.920  45.484 -23.1920  0.00  0.00     0.000 C
ATOM      6  O5  Z9H D   1       3.049  44.427 -22.7150  0.00  0.00     0.000 O
ATOM      7   O  Z9H D   1       6.458  42.657 -24.3420  0.00  0.00     0.000 O
ATOM      8   C  Z9H D   1       7.617  42.076 -23.7210  0.00  0.00     0.000 C
ATOM      9   O  Z9H D   1       6.253  45.442 -23.8550  0.00  0.00     0.000 O
ATOM     10   C  Z9H D   1       6.915  45.639 -25.1080  0.00  0.00     0.000 C
ENDROOT
BRANCH 2 11
ATOM     11   O  Z9H D   1       4.818  41.255 -22.2940  0.00  0.00     0.000 O
ATOM     12   O  Z9H D   1       4.325  39.435 -22.2780  0.00  0.00     0.000 OA
ATOM     13   S  Z9H D   1       3.857  40.394 -23.2210  0.00  0.00     0.000 S
ATOM     14   O  Z9H D   1       4.465  40.278 -24.5160  0.00  0.00     0.000 OA
ATOM     15   O  Z9H D   1       2.466  40.701 -22.9800  0.00  0.00     0.000 O
ENDBRANCH 2 11
BRANCH 5 16
ATOM     16   C  Z9H D   1       3.323  46.772 -24.0780  0.00  0.00     0.000 C
ATOM     17   S  Z9H D   1       3.405  47.703 -25.8570  0.00  0.00     0.000 S
ATOM     18   O  Z9H D   1       3.376  46.171 -25.3490  0.00  0.00     0.000 O
ATOM     19   O  Z9H D   1       4.603  48.423 -25.5320  0.00  0.00     0.000 O
ATOM     20   O  Z9H D   1       2.106  48.273 -25.7710  0.00  0.00     0.000 OA
ATOM     21   O  Z9H D   1       3.508  47.036 -27.1210  0.00  0.00     0.000 OA
ENDBRANCH 5 16
BRANCH 1 22
ATOM     22  O4  GU1 D   2       4.058  43.415 -20.9770  0.00  0.00     0.000 O
BRANCH 22 26
ATOM     23  C1  GU1 D   2       3.215  44.546 -17.1060  0.00  0.00     0.000 C
ATOM     24  C2  GU1 D   2       2.105  43.774 -17.8030  0.00  0.00     0.000 C
ATOM     25  C3  GU1 D   2       2.659  43.101 -19.0250  0.00  0.00     0.000 C
ATOM     26  C4  GU1 D   2       3.378  44.101 -19.9180  0.00  0.00     0.000 C
ATOM     27  C5  GU1 D   2       4.399  44.896 -19.0990  0.00  0.00     0.000 C
ATOM     28  O5  GU1 D   2       3.767  45.520 -17.9850  0.00  0.00     0.000 O
ATOM     29   O  GU1 D   2       1.542  42.775 -16.9620  0.00  0.00     0.000 O
ATOM     30   C  GU1 D   2       0.353  43.183 -16.3000  0.00  0.00     0.000 C
ATOM     31   C  GU1 D   2       1.419  41.122 -19.6090  0.00  0.00     0.000 C
ATOM     32   O  GU1 D   2       1.571  42.531 -19.7600  0.00  0.00     0.000 O
BRANCH 27 33
ATOM     33   C  GU1 D   2       5.044  45.979 -19.9310  0.00  0.00     0.000 C
ATOM     34   O  GU1 D   2       4.437  47.018 -20.0980  0.00  0.00     0.000 OA
ATOM     35   O  GU1 D   2       6.150  45.811 -20.4200  0.00  0.00     0.000 O
ENDBRANCH 27 33
BRANCH 23 36
ATOM     36  O4  GU6 D   3       2.894  45.475 -16.0520  0.00  0.00     0.000 O
BRANCH 36 40
ATOM     37  C1  GU6 D   3       1.448  47.419 -12.7620  0.00  0.00     0.000 C
ATOM     38  C2  GU6 D   3       0.809  47.861 -14.0720  0.00  0.00     0.000 C
ATOM     39  C3  GU6 D   3       1.203  46.911 -15.1720  0.00  0.00     0.000 C
ATOM     40  C4  GU6 D   3       2.248  45.923 -14.8780  0.00  0.00     0.000 C
ATOM     41  C5  GU6 D   3       3.341  46.575 -13.9690  0.00  0.00     0.000 C
ATOM     42  O5  GU6 D   3       2.858  47.425 -12.9220  0.00  0.00     0.000 O
BRANCH 38 43
ATOM     43   O  GU6 D   3      -0.600  47.900 -13.9500  0.00  0.00     0.000 O
ATOM     44   S  GU6 D   3      -1.157  49.251 -13.5190  0.00  0.00     0.000 S
ATOM     45   O  GU6 D   3      -1.034  49.362 -12.0550  0.00  0.00     0.000 OA
ATOM     46   O  GU6 D   3      -0.361  50.314 -14.1590  0.00  0.00     0.000 O
ATOM     47   O  GU6 D   3      -2.550  49.343 -13.9440  0.00  0.00     0.000 OA
ENDBRANCH 38 43
BRANCH 39 48
ATOM     48   O  GU6 D   3       0.440  46.818 -16.3600  0.00  0.00     0.000 O
ATOM     49   S  GU6 D   3       0.399  47.744 -17.5750  0.00  0.00     0.000 S
ATOM     50   O  GU6 D   3       1.749  47.916 -18.1240  0.00  0.00     0.000 OA
ATOM     51   O  GU6 D   3      -0.469  47.022 -18.5150  0.00  0.00     0.000 OA
ATOM     52   O  GU6 D   3      -0.150  49.054 -17.1610  0.00  0.00     0.000 O
ENDBRANCH 39 48
BRANCH 41 53
ATOM     53   C  GU6 D   3       4.837  46.422 -14.0290  0.00  0.00     0.000 C
ATOM     54   O  GU6 D   3       5.093  46.508 -12.6510  0.00  0.00     0.000 O
ATOM     55   S  GU6 D   3       6.536  46.524 -12.1270  0.00  0.00     0.000 S
ATOM     56   O  GU6 D   3       7.151  47.784 -12.6050  0.00  0.00     0.000 O
ATOM     57   O  GU6 D   3       6.501  46.488 -10.6570  0.00  0.00     0.000 OA
ATOM     58   O  GU6 D   3       7.224  45.345 -12.6990  0.00  0.00     0.000 OA
ENDBRANCH 41 53
BRANCH 37 59
ATOM     59  O4  Z9K D   4       1.103  46.221 -12.0340  0.00  0.00     0.000 O
BRANCH 59 63
ATOM     60  C1  Z9K D   4       0.479  45.538  -8.2150  0.00  0.00     0.000 C
ATOM     61  C2  Z9K D   4       1.859  46.251  -8.1710  0.00  0.00     0.000 C
ATOM     62  C3  Z9K D   4       2.020  46.688  -9.6920  0.00  0.00     0.000 C
ATOM     63  C4  Z9K D   4       1.689  45.648 -10.8290  0.00  0.00     0.000 C
ATOM     64  C5  Z9K D   4       0.680  44.548 -10.4640  0.00  0.00     0.000 C
ATOM     65  O5  Z9K D   4      -0.197  45.216  -9.5190  0.00  0.00     0.000 O
ATOM     66   O  Z9K D   4       3.337  47.174 -10.0070  0.00  0.00     0.000 O
ATOM     67   C  Z9K D   4       3.535  48.552  -9.7330  0.00  0.00     0.000 C
BRANCH 61 68
ATOM     68   O  Z9K D   4       1.687  47.433  -7.4380  0.00  0.00     0.000 O
ATOM     69   O  Z9K D   4       4.059  46.512  -7.1680  0.00  0.00     0.000 OA
ATOM     70   S  Z9K D   4       2.778  46.638  -6.5420  0.00  0.00     0.000 S
ATOM     71   O  Z9K D   4       2.110  45.620  -5.7900  0.00  0.00     0.000 OA
ATOM     72   O  Z9K D   4       2.667  47.885  -5.8560  0.00  0.00     0.000 OA
ENDBRANCH 61 68
BRANCH 64 73
ATOM     73   C  Z9K D   4       0.065  43.925 -11.7350  0.00  0.00     0.000 C
ATOM     74   O  Z9K D   4      -1.003  44.381 -12.2380  0.00  0.00     0.000 O
ATOM     75   O  Z9K D   4       0.600  42.951 -12.3200  0.00  0.00     0.000 OA
ENDBRANCH 64 73
BRANCH 60 76
ATOM     76  O4  Z9L D   5       0.087  44.310  -7.5770  0.00  0.00     0.000 O
BRANCH 76 80
ATOM     77  C1  Z9L D   5      -2.763  42.576  -5.3760  0.00  0.00     0.000 C
ATOM     78  C2  Z9L D   5      -2.720  41.804  -6.7810  0.00  0.00     0.000 C
ATOM     79  C3  Z9L D   5      -1.251  42.211  -7.5140  0.00  0.00     0.000 C
ATOM     80  C4  Z9L D   5      -1.174  43.825  -7.1930  0.00  0.00     0.000 C
ATOM     81  C5  Z9L D   5      -1.442  44.643  -5.8290  0.00  0.00     0.000 C
ATOM     82  O5  Z9L D   5      -2.595  44.044  -5.2190  0.00  0.00     0.000 O
ATOM     83   C  Z9L D   5      -1.814  42.479  -3.1430  0.00  0.00     0.000 C
ATOM     84   C  Z9L D   5      -1.814  42.479  -3.1430  0.00  0.00     0.000 C
BRANCH 78 85
ATOM     85   O  Z9L D   5      -2.737  40.437  -6.5230  0.00  0.00     0.000 O
ATOM     86   O  Z9L D   5      -4.201  39.253  -6.9290  0.00  0.00     0.000 OA
ATOM     87   S  Z9L D   5      -4.128  40.632  -7.3050  0.00  0.00     0.000 S
ATOM     88   O  Z9L D   5      -3.993  40.621  -8.7410  0.00  0.00     0.000 OA
ATOM     89   O  Z9L D   5      -5.175  41.272  -6.5860  0.00  0.00     0.000 OA
ENDBRANCH 78 85
BRANCH 79 90
ATOM     90   O  Z9L D   5      -1.352  42.184  -8.9020  0.00  0.00     0.000 O
ATOM     91   S  Z9L D   5      -0.185  41.119  -8.6980  0.00  0.00     0.000 S
ATOM     92   O  Z9L D   5      -0.339  39.957  -7.8630  0.00  0.00     0.000 OA
ATOM     93   O  Z9L D   5       1.091  41.780  -8.8210  0.00  0.00     0.000 O
ATOM     94   O  Z9L D   5      -0.598  40.752 -10.0140  0.00  0.00     0.000 OA
ENDBRANCH 79 90
BRANCH 81 95
ATOM     95   C  Z9L D   5      -1.357  46.316  -5.9050  0.00  0.00     0.000 C
ATOM     96   S  Z9L D   5      -2.420  47.993  -6.0610  0.00  0.00     0.000 S
ATOM     97   O  Z9L D   5      -2.524  46.537  -6.6510  0.00  0.00     0.000 O
ATOM     98   O  Z9L D   5      -1.321  48.636  -6.7340  0.00  0.00     0.000 OA
ATOM     99   O  Z9L D   5      -2.593  48.104  -4.6520  0.00  0.00     0.000 OA
ATOM    100   O  Z9L D   5      -3.608  48.165  -6.8610  0.00  0.00     0.000 O
ENDBRANCH 81 95
ENDBRANCH 76 80
ENDBRANCH 60 76
ENDBRANCH 59 63
ENDBRANCH 37 59
ENDBRANCH 36 40
ENDBRANCH 23 36
ENDBRANCH 22 26
ENDBRANCH 1 22
TORSDOF 19
ENDMDL
MODEL 25
REMARK VINA RESULT:      -6.3     32.748     39.278
ROOT
ATOM      1  C1  Z9H D   1      -3.389  21.343 -21.4580  0.00  0.00     0.000 C
ATOM      2  C2  Z9H D   1      -2.312  21.432 -22.5660  0.00  0.00     0.000 C
ATOM      3  C3  Z9H D   1      -2.480  22.942 -22.9180  0.00  0.00     0.000 C
ATOM      4  C4  Z9H D   1      -3.968  23.413 -23.1960  0.00  0.00     0.000 C
ATOM      5  C5  Z9H D   1      -5.181  23.044 -22.2530  0.00  0.00     0.000 C
ATOM      6  O5  Z9H D   1      -4.756  21.763 -21.7250  0.00  0.00     0.000 O
ATOM      7   O  Z9H D   1      -1.626  23.329 -23.9960  0.00  0.00     0.000 O
ATOM      8   C  Z9H D   1      -0.401  23.973 -23.6100  0.00  0.00     0.000 C
ATOM      9   O  Z9H D   1      -3.915  24.841 -23.2790  0.00  0.00     0.000 O
ATOM     10   C  Z9H D   1      -3.885  25.382 -24.6030  0.00  0.00     0.000 C
ENDROOT
BRANCH 2 11
ATOM     11   O  Z9H D   1      -1.123  21.360 -21.8230  0.00  0.00     0.000 O
ATOM     12   O  Z9H D   1       0.119  19.946 -21.9440  0.00  0.00     0.000 OA
ATOM     13   S  Z9H D   1      -1.067  20.055 -22.7260  0.00  0.00     0.000 S
ATOM     14   O  Z9H D   1      -0.831  20.455 -24.0840  0.00  0.00     0.000 OA
ATOM     15   O  Z9H D   1      -2.040  19.073 -22.3060  0.00  0.00     0.000 O
ENDBRANCH 2 11
BRANCH 5 16
ATOM     16   C  Z9H D   1      -6.696  23.244 -22.9370  0.00  0.00     0.000 C
ATOM     17   S  Z9H D   1      -7.691  23.404 -24.6750  0.00  0.00     0.000 S
ATOM     18   O  Z9H D   1      -6.475  22.504 -24.1130  0.00  0.00     0.000 O
ATOM     19   O  Z9H D   1      -7.387  24.798 -24.8310  0.00  0.00     0.000 O
ATOM     20   O  Z9H D   1      -8.930  22.930 -24.1660  0.00  0.00     0.000 OA
ATOM     21   O  Z9H D   1      -7.388  22.654 -25.8590  0.00  0.00     0.000 OA
ENDBRANCH 5 16
BRANCH 1 22
ATOM     22  O4  GU1 D   2      -3.098  22.129 -20.2470  0.00  0.00     0.000 O
BRANCH 22 26
ATOM     23  C1  GU1 D   2      -3.386  22.172 -16.1380  0.00  0.00     0.000 C
ATOM     24  C2  GU1 D   2      -3.224  20.790 -16.7530  0.00  0.00     0.000 C
ATOM     25  C3  GU1 D   2      -2.752  20.930 -18.1720  0.00  0.00     0.000 C
ATOM     26  C4  GU1 D   2      -3.664  21.860 -18.9590  0.00  0.00     0.000 C
ATOM     27  C5  GU1 D   2      -3.844  23.181 -18.2040  0.00  0.00     0.000 C
ATOM     28  O5  GU1 D   2      -4.323  22.939 -16.8840  0.00  0.00     0.000 O
ATOM     29   O  GU1 D   2      -2.275  20.000 -16.0450  0.00  0.00     0.000 O
ATOM     30   C  GU1 D   2      -2.857  19.116 -15.0980  0.00  0.00     0.000 C
ATOM     31   C  GU1 D   2      -1.504  19.007 -18.9040  0.00  0.00     0.000 C
ATOM     32   O  GU1 D   2      -2.777  19.638 -18.7860  0.00  0.00     0.000 O
BRANCH 27 33
ATOM     33   C  GU1 D   2      -4.839  24.078 -18.9010  0.00  0.00     0.000 C
ATOM     34   O  GU1 D   2      -4.432  25.094 -19.4250  0.00  0.00     0.000 OA
ATOM     35   O  GU1 D   2      -6.023  23.781 -18.9380  0.00  0.00     0.000 O
ENDBRANCH 27 33
BRANCH 23 36
ATOM     36  O4  GU6 D   3      -4.058  22.323 -14.8720  0.00  0.00     0.000 O
BRANCH 36 40
ATOM     37  C1  GU6 D   3      -4.882  23.472 -11.0380  0.00  0.00     0.000 C
ATOM     38  C2  GU6 D   3      -3.394  23.430 -11.3650  0.00  0.00     0.000 C
ATOM     39  C3  GU6 D   3      -3.208  23.266 -12.8510  0.00  0.00     0.000 C
ATOM     40  C4  GU6 D   3      -4.396  22.960 -13.6570  0.00  0.00     0.000 C
ATOM     41  C5  GU6 D   3      -5.327  21.983 -12.8660  0.00  0.00     0.000 C
ATOM     42  O5  GU6 D   3      -5.473  22.255 -11.4670  0.00  0.00     0.000 O
BRANCH 38 43
ATOM     43   O  GU6 D   3      -2.755  24.613 -10.9260  0.00  0.00     0.000 O
ATOM     44   S  GU6 D   3      -2.346  24.601  -9.4590  0.00  0.00     0.000 S
ATOM     45   O  GU6 D   3      -3.524  24.942  -8.6420  0.00  0.00     0.000 OA
ATOM     46   O  GU6 D   3      -1.885  23.245  -9.1110  0.00  0.00     0.000 O
ATOM     47   O  GU6 D   3      -1.266  25.562  -9.2630  0.00  0.00     0.000 OA
ENDBRANCH 38 43
BRANCH 39 48
ATOM     48   O  GU6 D   3      -1.989  23.621 -13.4740  0.00  0.00     0.000 O
ATOM     49   S  GU6 D   3      -0.606  22.982 -13.3580  0.00  0.00     0.000 S
ATOM     50   O  GU6 D   3      -0.680  21.554 -13.6870  0.00  0.00     0.000 OA
ATOM     51   O  GU6 D   3       0.185  23.716 -14.3560  0.00  0.00     0.000 OA
ATOM     52   O  GU6 D   3      -0.110  23.159 -11.9750  0.00  0.00     0.000 O
ENDBRANCH 39 48
BRANCH 41 53
ATOM     53   C  GU6 D   3      -6.107  20.800 -13.3720  0.00  0.00     0.000 C
ATOM     54   O  GU6 D   3      -7.219  21.501 -13.8650  0.00  0.00     0.000 O
ATOM     55   S  GU6 D   3      -8.433  20.744 -14.4200  0.00  0.00     0.000 S
ATOM     56   O  GU6 D   3      -9.042  20.019 -13.2810  0.00  0.00     0.000 O
ATOM     57   O  GU6 D   3      -9.378  21.721 -14.9800  0.00  0.00     0.000 OA
ATOM     58   O  GU6 D   3      -7.931  19.801 -15.4440  0.00  0.00     0.000 OA
ENDBRANCH 41 53
BRANCH 37 59
ATOM     59  O4  Z9K D   4      -5.781  24.539 -11.4050  0.00  0.00     0.000 O
BRANCH 59 63
ATOM     60  C1  Z9K D   4      -6.694  27.005  -8.4830  0.00  0.00     0.000 C
ATOM     61  C2  Z9K D   4      -7.509  25.745  -8.0790  0.00  0.00     0.000 C
ATOM     62  C3  Z9K D   4      -6.994  24.695  -9.1570  0.00  0.00     0.000 C
ATOM     63  C4  Z9K D   4      -6.889  25.134 -10.6680  0.00  0.00     0.000 C
ATOM     64  C5  Z9K D   4      -6.684  26.635 -10.9210  0.00  0.00     0.000 C
ATOM     65  O5  Z9K D   4      -5.910  27.054  -9.7660  0.00  0.00     0.000 O
ATOM     66   O  Z9K D   4      -7.763  23.479  -9.1790  0.00  0.00     0.000 O
ATOM     67   C  Z9K D   4      -7.348  22.506  -8.2340  0.00  0.00     0.000 C
BRANCH 61 68
ATOM     68   O  Z9K D   4      -7.013  25.313  -6.8420  0.00  0.00     0.000 O
ATOM     69   O  Z9K D   4      -9.520  24.843  -7.0510  0.00  0.00     0.000 OA
ATOM     70   S  Z9K D   4      -8.540  25.711  -6.4720  0.00  0.00     0.000 S
ATOM     71   O  Z9K D   4      -8.639  27.134  -6.3700  0.00  0.00     0.000 OA
ATOM     72   O  Z9K D   4      -8.053  25.179  -5.2400  0.00  0.00     0.000 OA
ENDBRANCH 61 68
BRANCH 64 73
ATOM     73   C  Z9K D   4      -6.104  26.880 -12.3300  0.00  0.00     0.000 C
ATOM     74   O  Z9K D   4      -4.865  27.062 -12.5070  0.00  0.00     0.000 O
ATOM     75   O  Z9K D   4      -6.835  26.902 -13.3510  0.00  0.00     0.000 OA
ENDBRANCH 64 73
BRANCH 60 76
ATOM     76  O4  Z9L D   5      -7.140  28.369  -8.5690  0.00  0.00     0.000 O
BRANCH 76 80
ATOM     77  C1  Z9L D   5      -6.148  32.171  -7.8420  0.00  0.00     0.000 C
ATOM     78  C2  Z9L D   5      -6.269  32.014  -9.4330  0.00  0.00     0.000 C
ATOM     79  C3  Z9L D   5      -7.119  30.579  -9.7150  0.00  0.00     0.000 C
ATOM     80  C4  Z9L D   5      -6.426  29.578  -8.6050  0.00  0.00     0.000 C
ATOM     81  C5  Z9L D   5      -6.085  29.809  -7.0460  0.00  0.00     0.000 C
ATOM     82  O5  Z9L D   5      -5.569  31.144  -6.9380  0.00  0.00     0.000 O
ATOM     83   C  Z9L D   5      -7.476  32.773  -5.9010  0.00  0.00     0.000 C
ATOM     84   C  Z9L D   5      -7.476  32.773  -5.9010  0.00  0.00     0.000 C
BRANCH 78 85
ATOM     85   O  Z9L D   5      -7.012  33.087  -9.9180  0.00  0.00     0.000 O
ATOM     86   O  Z9L D   5      -6.345  34.449 -11.1040  0.00  0.00     0.000 OA
ATOM     87   S  Z9L D   5      -5.624  33.279 -10.7040  0.00  0.00     0.000 S
ATOM     88   O  Z9L D   5      -5.518  32.479 -11.8990  0.00  0.00     0.000 OA
ATOM     89   O  Z9L D   5      -4.525  33.759  -9.9410  0.00  0.00     0.000 OA
ENDBRANCH 78 85
BRANCH 79 90
ATOM     90   O  Z9L D   5      -6.743  29.997 -10.9230  0.00  0.00     0.000 O
ATOM     91   S  Z9L D   5      -8.304  30.173 -11.1860  0.00  0.00     0.000 S
ATOM     92   O  Z9L D   5      -8.962  31.449 -11.0850  0.00  0.00     0.000 OA
ATOM     93   O  Z9L D   5      -8.989  28.955 -10.8310  0.00  0.00     0.000 O
ATOM     94   O  Z9L D   5      -7.862  30.031 -12.5350  0.00  0.00     0.000 OA
ENDBRANCH 79 90
BRANCH 81 95
ATOM     95   C  Z9L D   5      -5.281  28.575  -6.2430  0.00  0.00     0.000 C
ATOM     96   S  Z9L D   5      -3.493  27.824  -5.7910  0.00  0.00     0.000 S
ATOM     97   O  Z9L D   5      -4.127  28.544  -7.0390  0.00  0.00     0.000 O
ATOM     98   O  Z9L D   5      -4.053  26.497  -5.7490  0.00  0.00     0.000 OA
ATOM     99   O  Z9L D   5      -3.375  28.616  -4.6130  0.00  0.00     0.000 OA
ATOM    100   O  Z9L D   5      -2.343  27.806  -6.6600  0.00  0.00     0.000 O
ENDBRANCH 81 95
ENDBRANCH 76 80
ENDBRANCH 60 76
ENDBRANCH 59 63
ENDBRANCH 37 59
ENDBRANCH 36 40
ENDBRANCH 23 36
ENDBRANCH 22 26
ENDBRANCH 1 22
TORSDOF 19
ENDMDL
MODEL 26
REMARK VINA RESULT:      -6.3     29.141     35.371
ROOT
ATOM      1  C1  Z9H D   1      11.828  43.984 -33.8220  0.00  0.00     0.000 C
ATOM      2  C2  Z9H D   1      11.977  44.821 -35.1150  0.00  0.00     0.000 C
ATOM      3  C3  Z9H D   1      11.037  43.982 -36.0330  0.00  0.00     0.000 C
ATOM      4  C4  Z9H D   1      11.314  42.421 -36.0440  0.00  0.00     0.000 C
ATOM      5  C5  Z9H D   1      11.515  41.570 -34.7270  0.00  0.00     0.000 C
ATOM      6  O5  Z9H D   1      12.097  42.554 -33.8350  0.00  0.00     0.000 O
ATOM      7   O  Z9H D   1      11.013  44.491 -37.3680  0.00  0.00     0.000 O
ATOM      8   C  Z9H D   1       9.896  45.338 -37.6840  0.00  0.00     0.000 C
ATOM      9   O  Z9H D   1      10.221  41.838 -36.7620  0.00  0.00     0.000 O
ATOM     10   C  Z9H D   1      10.482  41.521 -38.1330  0.00  0.00     0.000 C
ENDROOT
BRANCH 2 11
ATOM     11   O  Z9H D   1      11.245  45.977 -34.8000  0.00  0.00     0.000 O
ATOM     12   O  Z9H D   1      12.001  47.696 -34.6280  0.00  0.00     0.000 OA
ATOM     13   S  Z9H D   1      12.724  46.524 -34.9930  0.00  0.00     0.000 S
ATOM     14   O  Z9H D   1      13.052  46.456 -36.3890  0.00  0.00     0.000 OA
ATOM     15   O  Z9H D   1      13.591  46.110 -33.9140  0.00  0.00     0.000 O
ENDBRANCH 2 11
BRANCH 5 16
ATOM     16   C  Z9H D   1      12.224  40.072 -34.9530  0.00  0.00     0.000 C
ATOM     17   S  Z9H D   1      13.023  38.837 -36.3230  0.00  0.00     0.000 S
ATOM     18   O  Z9H D   1      13.076  40.421 -36.0180  0.00  0.00     0.000 O
ATOM     19   O  Z9H D   1      11.748  38.351 -36.7670  0.00  0.00     0.000 O
ATOM     20   O  Z9H D   1      13.849  38.133 -35.4050  0.00  0.00     0.000 OA
ATOM     21   O  Z9H D   1      13.847  39.259 -37.4170  0.00  0.00     0.000 OA
ENDBRANCH 5 16
BRANCH 1 22
ATOM     22  O4  GU1 D   2      10.479  43.997 -33.2290  0.00  0.00     0.000 O
BRANCH 22 26
ATOM     23  C1  GU1 D   2       8.265  44.121 -29.7570  0.00  0.00     0.000 C
ATOM     24  C2  GU1 D   2       9.368  45.164 -29.8500  0.00  0.00     0.000 C
ATOM     25  C3  GU1 D   2       9.834  45.270 -31.2730  0.00  0.00     0.000 C
ATOM     26  C4  GU1 D   2      10.219  43.905 -31.8230  0.00  0.00     0.000 C
ATOM     27  C5  GU1 D   2       9.083  42.905 -31.5870  0.00  0.00     0.000 C
ATOM     28  O5  GU1 D   2       8.740  42.857 -30.2050  0.00  0.00     0.000 O
ATOM     29   O  GU1 D   2       8.923  46.448 -29.4300  0.00  0.00     0.000 O
ATOM     30   C  GU1 D   2       9.240  46.754 -28.0800  0.00  0.00     0.000 C
ATOM     31   C  GU1 D   2      10.736  47.446 -31.7690  0.00  0.00     0.000 C
ATOM     32   O  GU1 D   2      10.985  46.120 -31.3090  0.00  0.00     0.000 O
BRANCH 27 33
ATOM     33   C  GU1 D   2       9.483  41.513 -32.0140  0.00  0.00     0.000 C
ATOM     34   O  GU1 D   2       8.794  40.938 -32.8320  0.00  0.00     0.000 OA
ATOM     35   O  GU1 D   2      10.480  40.983 -31.5480  0.00  0.00     0.000 O
ENDBRANCH 27 33
BRANCH 23 36
ATOM     36  O4  GU6 D   3       7.820  43.654 -28.4680  0.00  0.00     0.000 O
BRANCH 36 40
ATOM     37  C1  GU6 D   3       5.413  42.007 -25.6060  0.00  0.00     0.000 C
ATOM     38  C2  GU6 D   3       6.798  42.393 -25.1020  0.00  0.00     0.000 C
ATOM     39  C3  GU6 D   3       7.499  43.228 -26.1420  0.00  0.00     0.000 C
ATOM     40  C4  GU6 D   3       6.877  43.331 -27.4670  0.00  0.00     0.000 C
ATOM     41  C5  GU6 D   3       6.245  41.953 -27.8550  0.00  0.00     0.000 C
ATOM     42  O5  GU6 D   3       5.560  41.262 -26.8050  0.00  0.00     0.000 O
BRANCH 38 43
ATOM     43   O  GU6 D   3       6.703  43.114 -23.8890  0.00  0.00     0.000 O
ATOM     44   S  GU6 D   3       7.145  42.334 -22.6580  0.00  0.00     0.000 S
ATOM     45   O  GU6 D   3       6.032  41.472 -22.2250  0.00  0.00     0.000 OA
ATOM     46   O  GU6 D   3       8.301  41.495 -23.0220  0.00  0.00     0.000 O
ATOM     47   O  GU6 D   3       7.523  43.279 -21.6120  0.00  0.00     0.000 OA
ENDBRANCH 38 43
BRANCH 39 48
ATOM     48   O  GU6 D   3       8.584  44.065 -25.7910  0.00  0.00     0.000 O
ATOM     49   S  GU6 D   3      10.079  43.756 -25.7200  0.00  0.00     0.000 S
ATOM     50   O  GU6 D   3      10.546  43.219 -27.0030  0.00  0.00     0.000 OA
ATOM     51   O  GU6 D   3      10.678  45.068 -25.4430  0.00  0.00     0.000 OA
ATOM     52   O  GU6 D   3      10.313  42.768 -24.6430  0.00  0.00     0.000 O
ENDBRANCH 39 48
BRANCH 41 53
ATOM     53   C  GU6 D   3       6.242  41.255 -29.1890  0.00  0.00     0.000 C
ATOM     54   O  GU6 D   3       5.286  40.272 -28.8870  0.00  0.00     0.000 O
ATOM     55   S  GU6 D   3       4.960  39.166 -29.9000  0.00  0.00     0.000 S
ATOM     56   O  GU6 D   3       6.180  38.337 -30.0350  0.00  0.00     0.000 O
ATOM     57   O  GU6 D   3       3.843  38.366 -29.3770  0.00  0.00     0.000 OA
ATOM     58   O  GU6 D   3       4.622  39.829 -31.1800  0.00  0.00     0.000 OA
ENDBRANCH 41 53
BRANCH 37 59
ATOM     59  O4  Z9K D   4       4.317  42.925 -25.8030  0.00  0.00     0.000 O
BRANCH 59 63
ATOM     60  C1  Z9K D   4       3.252  44.292 -22.2750  0.00  0.00     0.000 C
ATOM     61  C2  Z9K D   4       2.469  42.951 -22.3270  0.00  0.00     0.000 C
ATOM     62  C3  Z9K D   4       3.045  42.318 -23.6680  0.00  0.00     0.000 C
ATOM     63  C4  Z9K D   4       3.173  43.224 -24.9510  0.00  0.00     0.000 C
ATOM     64  C5  Z9K D   4       3.334  44.731 -24.7000  0.00  0.00     0.000 C
ATOM     65  O5  Z9K D   4       4.065  44.772 -23.4460  0.00  0.00     0.000 O
ATOM     66   O  Z9K D   4       2.317  41.157 -24.1060  0.00  0.00     0.000 O
ATOM     67   C  Z9K D   4       2.741  39.941 -23.5130  0.00  0.00     0.000 C
BRANCH 61 68
ATOM     68   O  Z9K D   4       2.948  42.154 -21.2790  0.00  0.00     0.000 O
ATOM     69   O  Z9K D   4       0.465  41.715 -21.7150  0.00  0.00     0.000 OA
ATOM     70   S  Z9K D   4       1.401  42.373 -20.8530  0.00  0.00     0.000 S
ATOM     71   O  Z9K D   4       1.250  43.684 -20.3010  0.00  0.00     0.000 OA
ATOM     72   O  Z9K D   4       1.875  41.483 -19.8430  0.00  0.00     0.000 OA
ENDBRANCH 61 68
BRANCH 64 73
ATOM     73   C  Z9K D   4       3.940  45.432 -25.9350  0.00  0.00     0.000 C
ATOM     74   O  Z9K D   4       3.320  45.468 -27.0370  0.00  0.00     0.000 O
ATOM     75   O  Z9K D   4       5.061  45.995 -25.8920  0.00  0.00     0.000 OA
ENDBRANCH 64 73
BRANCH 60 76
ATOM     76  O4  Z9L D   5       2.764  45.600 -21.9320  0.00  0.00     0.000 O
BRANCH 76 80
ATOM     77  C1  Z9L D   5       3.648  49.043 -20.1050  0.00  0.00     0.000 C
ATOM     78  C2  Z9L D   5       3.513  49.363 -21.6700  0.00  0.00     0.000 C
ATOM     79  C3  Z9L D   5       2.705  48.050 -22.3670  0.00  0.00     0.000 C
ATOM     80  C4  Z9L D   5       3.440  46.787 -21.6060  0.00  0.00     0.000 C
ATOM     81  C5  Z9L D   5       3.790  46.554 -20.0500  0.00  0.00     0.000 C
ATOM     82  O5  Z9L D   5       4.267  47.812 -19.5500  0.00  0.00     0.000 O
ATOM     83   C  Z9L D   5       2.322  48.995 -18.0710  0.00  0.00     0.000 C
ATOM     84   C  Z9L D   5       2.322  48.995 -18.0710  0.00  0.00     0.000 C
BRANCH 78 85
ATOM     85   O  Z9L D   5       2.733  50.507 -21.8120  0.00  0.00     0.000 O
ATOM     86   O  Z9L D   5       3.367  52.206 -22.4600  0.00  0.00     0.000 OA
ATOM     87   S  Z9L D   5       4.133  50.997 -22.4310  0.00  0.00     0.000 S
ATOM     88   O  Z9L D   5       4.314  50.636 -23.8150  0.00  0.00     0.000 OA
ATOM     89   O  Z9L D   5       5.184  51.241 -21.5050  0.00  0.00     0.000 OA
ENDBRANCH 78 85
BRANCH 79 90
ATOM     90   O  Z9L D   5       3.085  47.867 -23.6940  0.00  0.00     0.000 O
ATOM     91   S  Z9L D   5       1.518  48.067 -23.8900  0.00  0.00     0.000 S
ATOM     92   O  Z9L D   5       0.824  49.235 -23.4120  0.00  0.00     0.000 OA
ATOM     93   O  Z9L D   5       0.871  46.779 -23.9150  0.00  0.00     0.000 O
ATOM     94   O  Z9L D   5       1.950  48.348 -25.2210  0.00  0.00     0.000 OA
ENDBRANCH 79 90
BRANCH 81 95
ATOM     95   C  Z9L D   5       4.640  45.163 -19.6530  0.00  0.00     0.000 C
ATOM     96   S  Z9L D   5       5.255  44.005 -18.1530  0.00  0.00     0.000 S
ATOM     97   O  Z9L D   5       5.066  45.553 -18.3750  0.00  0.00     0.000 O
ATOM     98   O  Z9L D   5       6.410  43.614 -18.9190  0.00  0.00     0.000 OA
ATOM     99   O  Z9L D   5       4.061  43.228 -18.1640  0.00  0.00     0.000 OA
ATOM    100   O  Z9L D   5       5.699  44.466 -16.8610  0.00  0.00     0.000 O
ENDBRANCH 81 95
ENDBRANCH 76 80
ENDBRANCH 60 76
ENDBRANCH 59 63
ENDBRANCH 37 59
ENDBRANCH 36 40
ENDBRANCH 23 36
ENDBRANCH 22 26
ENDBRANCH 1 22
TORSDOF 19
ENDMDL
MODEL 27
REMARK VINA RESULT:      -6.2     32.426     39.592
ROOT
ATOM      1  C1  Z9H D   1      26.045  18.884 -54.4600  0.00  0.00     0.000 C
ATOM      2  C2  Z9H D   1      26.030  17.741 -53.4170  0.00  0.00     0.000 C
ATOM      3  C3  Z9H D   1      27.490  17.232 -53.6230  0.00  0.00     0.000 C
ATOM      4  C4  Z9H D   1      27.905  16.951 -55.1270  0.00  0.00     0.000 C
ATOM      5  C5  Z9H D   1      27.623  17.965 -56.3060  0.00  0.00     0.000 C
ATOM      6  O5  Z9H D   1      26.413  18.616 -55.8410  0.00  0.00     0.000 O
ATOM      7   O  Z9H D   1      27.771  16.093 -52.8080  0.00  0.00     0.000 O
ATOM      8   C  Z9H D   1      28.472  16.369 -51.5840  0.00  0.00     0.000 C
ATOM      9   O  Z9H D   1      29.316  16.713 -55.1020  0.00  0.00     0.000 O
ATOM     10   C  Z9H D   1      29.711  15.337 -55.1220  0.00  0.00     0.000 C
ENDROOT
BRANCH 2 11
ATOM     11   O  Z9H D   1      26.058  18.450 -52.2060  0.00  0.00     0.000 O
ATOM     12   O  Z9H D   1      24.659  18.440 -50.9400  0.00  0.00     0.000 OA
ATOM     13   S  Z9H D   1      24.665  17.688 -52.1500  0.00  0.00     0.000 S
ATOM     14   O  Z9H D   1      24.923  16.289 -51.9620  0.00  0.00     0.000 OA
ATOM     15   O  Z9H D   1      23.717  18.240 -53.0900  0.00  0.00     0.000 O
ENDBRANCH 2 11
BRANCH 5 16
ATOM     16   C  Z9H D   1      27.724  17.311 -57.8430  0.00  0.00     0.000 C
ATOM     17   S  Z9H D   1      27.700  17.748 -59.8050  0.00  0.00     0.000 S
ATOM     18   O  Z9H D   1      28.340  18.406 -58.4770  0.00  0.00     0.000 O
ATOM     19   O  Z9H D   1      26.267  17.800 -59.8720  0.00  0.00     0.000 O
ATOM     20   O  Z9H D   1      28.458  16.614 -60.2050  0.00  0.00     0.000 OA
ATOM     21   O  Z9H D   1      28.307  18.908 -60.3880  0.00  0.00     0.000 OA
ENDBRANCH 5 16
BRANCH 1 22
ATOM     22  O4  GU1 D   2      26.964  19.994 -54.1490  0.00  0.00     0.000 O
BRANCH 22 26
ATOM     23  C1  GU1 D   2      27.261  24.062 -54.7220  0.00  0.00     0.000 C
ATOM     24  C2  GU1 D   2      25.929  23.454 -55.1340  0.00  0.00     0.000 C
ATOM     25  C3  GU1 D   2      25.802  22.083 -54.5360  0.00  0.00     0.000 C
ATOM     26  C4  GU1 D   2      27.012  21.226 -54.8780  0.00  0.00     0.000 C
ATOM     27  C5  GU1 D   2      28.301  21.971 -54.5190  0.00  0.00     0.000 C
ATOM     28  O5  GU1 D   2      28.337  23.243 -55.1620  0.00  0.00     0.000 O
ATOM     29   O  GU1 D   2      24.826  24.236 -54.6910  0.00  0.00     0.000 O
ATOM     30   C  GU1 D   2      24.318  25.123 -55.6770  0.00  0.00     0.000 C
ATOM     31   C  GU1 D   2      23.503  21.449 -54.2060  0.00  0.00     0.000 C
ATOM     32   O  GU1 D   2      24.632  21.460 -55.0770  0.00  0.00     0.000 O
BRANCH 27 33
ATOM     33   C  GU1 D   2      29.520  21.196 -54.9580  0.00  0.00     0.000 C
ATOM     34   O  GU1 D   2      30.339  20.883 -54.1180  0.00  0.00     0.000 OA
ATOM     35   O  GU1 D   2      29.673  20.890 -56.1310  0.00  0.00     0.000 O
ENDBRANCH 27 33
BRANCH 23 36
ATOM     36  O4  GU6 D   3      27.732  25.266 -55.3590  0.00  0.00     0.000 O
BRANCH 36 40
ATOM     37  C1  GU6 D   3      28.132  28.682 -57.5650  0.00  0.00     0.000 C
ATOM     38  C2  GU6 D   3      29.346  27.762 -57.6230  0.00  0.00     0.000 C
ATOM     39  C3  GU6 D   3      28.999  26.429 -57.0130  0.00  0.00     0.000 C
ATOM     40  C4  GU6 D   3      27.719  26.317 -56.3040  0.00  0.00     0.000 C
ATOM     41  C5  GU6 D   3      27.439  27.640 -55.5190  0.00  0.00     0.000 C
ATOM     42  O5  GU6 D   3      27.760  28.855 -56.2070  0.00  0.00     0.000 O
BRANCH 38 43
ATOM     43   O  GU6 D   3      29.772  27.585 -58.9600  0.00  0.00     0.000 O
ATOM     44   S  GU6 D   3      31.219  27.986 -59.2170  0.00  0.00     0.000 S
ATOM     45   O  GU6 D   3      31.274  29.447 -59.4010  0.00  0.00     0.000 OA
ATOM     46   O  GU6 D   3      32.028  27.609 -58.0440  0.00  0.00     0.000 O
ATOM     47   O  GU6 D   3      31.699  27.283 -60.4030  0.00  0.00     0.000 OA
ENDBRANCH 38 43
BRANCH 39 48
ATOM     48   O  GU6 D   3      29.760  25.274 -57.3100  0.00  0.00     0.000 O
ATOM     49   S  GU6 D   3      29.547  24.208 -58.3840  0.00  0.00     0.000 S
ATOM     50   O  GU6 D   3      29.465  24.835 -59.7090  0.00  0.00     0.000 OA
ATOM     51   O  GU6 D   3      30.749  23.372 -58.2660  0.00  0.00     0.000 OA
ATOM     52   O  GU6 D   3      28.295  23.476 -58.0920  0.00  0.00     0.000 O
ENDBRANCH 39 48
BRANCH 41 53
ATOM     53   C  GU6 D   3      26.861  27.820 -54.1410  0.00  0.00     0.000 C
ATOM     54   O  GU6 D   3      28.056  28.133 -53.4730  0.00  0.00     0.000 O
ATOM     55   S  GU6 D   3      28.071  28.314 -51.9490  0.00  0.00     0.000 S
ATOM     56   O  GU6 D   3      27.760  26.992 -51.3590  0.00  0.00     0.000 O
ATOM     57   O  GU6 D   3      29.412  28.762 -51.5440  0.00  0.00     0.000 OA
ATOM     58   O  GU6 D   3      27.025  29.307 -51.6140  0.00  0.00     0.000 OA
ENDBRANCH 41 53
BRANCH 37 59
ATOM     59  O4  Z9K D   4      26.918  28.499 -58.3240  0.00  0.00     0.000 O
BRANCH 59 63
ATOM     60  C1  Z9K D   4      24.367  28.552 -61.3130  0.00  0.00     0.000 C
ATOM     61  C2  Z9K D   4      25.608  29.224 -61.9640  0.00  0.00     0.000 C
ATOM     62  C3  Z9K D   4      26.691  29.034 -60.8150  0.00  0.00     0.000 C
ATOM     63  C4  Z9K D   4      26.293  29.355 -59.3240  0.00  0.00     0.000 C
ATOM     64  C5  Z9K D   4      24.801  29.227 -58.9820  0.00  0.00     0.000 C
ATOM     65  O5  Z9K D   4      24.359  28.160 -59.8610  0.00  0.00     0.000 O
ATOM     66   O  Z9K D   4      27.900  29.780 -61.0440  0.00  0.00     0.000 O
ATOM     67   C  Z9K D   4      28.851  29.118 -61.8610  0.00  0.00     0.000 C
BRANCH 61 68
ATOM     68   O  Z9K D   4      26.011  28.402 -63.0250  0.00  0.00     0.000 O
ATOM     69   O  Z9K D   4      26.486  30.866 -63.5300  0.00  0.00     0.000 OA
ATOM     70   S  Z9K D   4      25.605  29.768 -63.7950  0.00  0.00     0.000 S
ATOM     71   O  Z9K D   4      24.179  29.844 -63.8890  0.00  0.00     0.000 OA
ATOM     72   O  Z9K D   4      26.108  28.955 -64.8550  0.00  0.00     0.000 OA
ENDBRANCH 61 68
BRANCH 64 73
ATOM     73   C  Z9K D   4      24.599  29.065 -57.4600  0.00  0.00     0.000 C
ATOM     74   O  Z9K D   4      24.804  30.029 -56.6660  0.00  0.00     0.000 O
ATOM     75   O  Z9K D   4      24.220  27.981 -56.9550  0.00  0.00     0.000 OA
ENDBRANCH 64 73
BRANCH 60 76
ATOM     76  O4  Z9L D   5      23.001  29.003 -61.3170  0.00  0.00     0.000 O
BRANCH 76 80
ATOM     77  C1  Z9L D   5      19.199  27.882 -61.8230  0.00  0.00     0.000 C
ATOM     78  C2  Z9L D   5      19.362  28.308 -60.2860  0.00  0.00     0.000 C
ATOM     79  C3  Z9L D   5      20.797  29.198 -60.1780  0.00  0.00     0.000 C
ATOM     80  C4  Z9L D   5      21.794  28.307 -61.1400  0.00  0.00     0.000 C
ATOM     81  C5  Z9L D   5      21.558  27.672 -62.6030  0.00  0.00     0.000 C
ATOM     82  O5  Z9L D   5      20.224  27.143 -62.6030  0.00  0.00     0.000 O
ATOM     83   C  Z9L D   5      18.586  28.811 -63.9800  0.00  0.00     0.000 C
ATOM     84   C  Z9L D   5      18.586  28.811 -63.9800  0.00  0.00     0.000 C
BRANCH 78 85
ATOM     85   O  Z9L D   5      18.290  29.128 -59.9480  0.00  0.00     0.000 O
ATOM     86   O  Z9L D   5      16.868  28.650 -58.7400  0.00  0.00     0.000 OA
ATOM     87   S  Z9L D   5      18.036  27.862 -58.9920  0.00  0.00     0.000 S
ATOM     88   O  Z9L D   5      18.787  27.902 -57.7620  0.00  0.00     0.000 OA
ATOM     89   O  Z9L D   5      17.559  26.678 -59.6220  0.00  0.00     0.000 OA
ENDBRANCH 78 85
BRANCH 79 90
ATOM     90   O  Z9L D   5      21.385  29.063 -58.9240  0.00  0.00     0.000 O
ATOM     91   S  Z9L D   5      21.195  30.644 -58.9610  0.00  0.00     0.000 S
ATOM     92   O  Z9L D   5      19.913  31.261 -59.1800  0.00  0.00     0.000 OA
ATOM     93   O  Z9L D   5      22.406  31.259 -59.4430  0.00  0.00     0.000 O
ATOM     94   O  Z9L D   5      21.344  30.467 -57.5520  0.00  0.00     0.000 OA
ENDBRANCH 79 90
BRANCH 81 95
ATOM     95   C  Z9L D   5      22.791  26.731 -63.2410  0.00  0.00     0.000 C
ATOM     96   S  Z9L D   5      23.354  25.627 -64.8010  0.00  0.00     0.000 S
ATOM     97   O  Z9L D   5      22.002  25.888 -64.0360  0.00  0.00     0.000 O
ATOM     98   O  Z9L D   5      24.167  24.809 -63.9370  0.00  0.00     0.000 OA
ATOM     99   O  Z9L D   5      23.900  26.746 -65.4920  0.00  0.00     0.000 OA
ATOM    100   O  Z9L D   5      22.496  24.762 -65.5720  0.00  0.00     0.000 O
ENDBRANCH 81 95
ENDBRANCH 76 80
ENDBRANCH 60 76
ENDBRANCH 59 63
ENDBRANCH 37 59
ENDBRANCH 36 40
ENDBRANCH 23 36
ENDBRANCH 22 26
ENDBRANCH 1 22
TORSDOF 19
ENDMDL
MODEL 28
REMARK VINA RESULT:      -6.2     33.341     39.053
ROOT
ATOM      1  C1  Z9H D   1      -6.866  34.809 -23.8350  0.00  0.00     0.000 C
ATOM      2  C2  Z9H D   1      -8.395  34.641 -24.0080  0.00  0.00     0.000 C
ATOM      3  C3  Z9H D   1      -8.764  34.420 -22.5090  0.00  0.00     0.000 C
ATOM      4  C4  Z9H D   1      -7.909  33.320 -21.7540  0.00  0.00     0.000 C
ATOM      5  C5  Z9H D   1      -6.332  33.246 -21.8320  0.00  0.00     0.000 C
ATOM      6  O5  Z9H D   1      -6.085  33.789 -23.1540  0.00  0.00     0.000 O
ATOM      7   O  Z9H D   1     -10.160  34.165 -22.3430  0.00  0.00     0.000 O
ATOM      8   C  Z9H D   1     -10.951  35.299 -21.9500  0.00  0.00     0.000 C
ATOM      9   O  Z9H D   1      -8.259  33.437 -20.3710  0.00  0.00     0.000 O
ATOM     10   C  Z9H D   1      -9.220  32.491 -19.8940  0.00  0.00     0.000 C
ENDROOT
BRANCH 2 11
ATOM     11   O  Z9H D   1      -8.802  35.953 -24.2950  0.00  0.00     0.000 O
ATOM     12   O  Z9H D   1      -9.548  36.495 -25.9400  0.00  0.00     0.000 OA
ATOM     13   S  Z9H D   1      -9.175  35.159 -25.6190  0.00  0.00     0.000 S
ATOM     14   O  Z9H D   1     -10.288  34.299 -25.3300  0.00  0.00     0.000 OA
ATOM     15   O  Z9H D   1      -7.997  34.772 -26.3600  0.00  0.00     0.000 O
ENDBRANCH 2 11
BRANCH 5 16
ATOM     16   C  Z9H D   1      -5.666  31.789 -21.3510  0.00  0.00     0.000 C
ATOM     17   S  Z9H D   1      -6.096  29.923 -20.7400  0.00  0.00     0.000 S
ATOM     18   O  Z9H D   1      -6.673  30.943 -21.8500  0.00  0.00     0.000 O
ATOM     19   O  Z9H D   1      -6.326  30.319 -19.3800  0.00  0.00     0.000 O
ATOM     20   O  Z9H D   1      -4.875  29.349 -21.1880  0.00  0.00     0.000 OA
ATOM     21   O  Z9H D   1      -7.170  29.125 -21.2550  0.00  0.00     0.000 OA
ENDBRANCH 5 16
BRANCH 1 22
ATOM     22  O4  GU1 D   2      -6.456  36.007 -23.0830  0.00  0.00     0.000 O
BRANCH 22 26
ATOM     23  C1  GU1 D   2      -3.723  39.082 -22.8550  0.00  0.00     0.000 C
ATOM     24  C2  GU1 D   2      -4.113  38.676 -24.2680  0.00  0.00     0.000 C
ATOM     25  C3  GU1 D   2      -5.362  37.844 -24.2200  0.00  0.00     0.000 C
ATOM     26  C4  GU1 D   2      -5.201  36.677 -23.2580  0.00  0.00     0.000 C
ATOM     27  C5  GU1 D   2      -4.708  37.181 -21.8990  0.00  0.00     0.000 C
ATOM     28  O5  GU1 D   2      -3.504  37.929 -22.0520  0.00  0.00     0.000 O
ATOM     29   O  GU1 D   2      -4.362  39.805 -25.0970  0.00  0.00     0.000 O
ATOM     30   C  GU1 D   2      -3.253  40.187 -25.8980  0.00  0.00     0.000 C
ATOM     31   C  GU1 D   2      -6.633  38.002 -26.2580  0.00  0.00     0.000 C
ATOM     32   O  GU1 D   2      -5.611  37.326 -25.5310  0.00  0.00     0.000 O
BRANCH 27 33
ATOM     33   C  GU1 D   2      -4.423  36.033 -20.9590  0.00  0.00     0.000 C
ATOM     34   O  GU1 D   2      -5.097  35.928 -19.9550  0.00  0.00     0.000 OA
ATOM     35   O  GU1 D   2      -3.538  35.230 -21.2110  0.00  0.00     0.000 O
ENDBRANCH 27 33
BRANCH 23 36
ATOM     36  O4  GU6 D   3      -2.433  39.674 -22.6050  0.00  0.00     0.000 O
BRANCH 36 40
ATOM     37  C1  GU6 D   3       0.385  42.605 -22.2020  0.00  0.00     0.000 C
ATOM     38  C2  GU6 D   3      -0.936  43.093 -22.7830  0.00  0.00     0.000 C
ATOM     39  C3  GU6 D   3      -1.980  42.017 -22.6380  0.00  0.00     0.000 C
ATOM     40  C4  GU6 D   3      -1.533  40.688 -22.2060  0.00  0.00     0.000 C
ATOM     41  C5  GU6 D   3      -0.151  40.362 -22.8630  0.00  0.00     0.000 C
ATOM     42  O5  GU6 D   3       0.788  41.442 -22.9090  0.00  0.00     0.000 O
BRANCH 38 43
ATOM     43   O  GU6 D   3      -1.363  44.272 -22.1280  0.00  0.00     0.000 O
ATOM     44   S  GU6 D   3      -1.485  45.488 -23.0370  0.00  0.00     0.000 S
ATOM     45   O  GU6 D   3      -0.146  46.078 -23.2110  0.00  0.00     0.000 OA
ATOM     46   O  GU6 D   3      -2.000  45.048 -24.3460  0.00  0.00     0.000 O
ATOM     47   O  GU6 D   3      -2.410  46.439 -22.4290  0.00  0.00     0.000 OA
ENDBRANCH 38 43
BRANCH 39 48
ATOM     48   O  GU6 D   3      -3.359  42.331 -22.6870  0.00  0.00     0.000 O
ATOM     49   S  GU6 D   3      -4.334  42.645 -21.5530  0.00  0.00     0.000 S
ATOM     50   O  GU6 D   3      -3.825  43.757 -20.7420  0.00  0.00     0.000 OA
ATOM     51   O  GU6 D   3      -5.561  43.026 -22.2660  0.00  0.00     0.000 OA
ATOM     52   O  GU6 D   3      -4.498  41.438 -20.7130  0.00  0.00     0.000 O
ENDBRANCH 39 48
BRANCH 41 53
ATOM     53   C  GU6 D   3       0.340  39.063 -23.4420  0.00  0.00     0.000 C
ATOM     54   O  GU6 D   3       1.628  39.490 -23.8040  0.00  0.00     0.000 O
ATOM     55   S  GU6 D   3       2.570  38.555 -24.5730  0.00  0.00     0.000 S
ATOM     56   O  GU6 D   3       1.963  38.338 -25.9070  0.00  0.00     0.000 O
ATOM     57   O  GU6 D   3       3.880  39.210 -24.6980  0.00  0.00     0.000 OA
ATOM     58   O  GU6 D   3       2.649  37.288 -23.8120  0.00  0.00     0.000 OA
ENDBRANCH 41 53
BRANCH 37 59
ATOM     59  O4  Z9K D   4       0.635  42.364 -20.8010  0.00  0.00     0.000 O
BRANCH 59 63
ATOM     60  C1  Z9K D   4       3.230  44.650 -18.9340  0.00  0.00     0.000 C
ATOM     61  C2  Z9K D   4       4.162  43.860 -19.8940  0.00  0.00     0.000 C
ATOM     62  C3  Z9K D   4       3.093  43.075 -20.7720  0.00  0.00     0.000 C
ATOM     63  C4  Z9K D   4       1.886  42.359 -20.0540  0.00  0.00     0.000 C
ATOM     64  C5  Z9K D   4       1.462  42.947 -18.6990  0.00  0.00     0.000 C
ATOM     65  O5  Z9K D   4       1.756  44.360 -18.8560  0.00  0.00     0.000 O
ATOM     66   O  Z9K D   4       3.678  42.061 -21.6090  0.00  0.00     0.000 O
ATOM     67   C  Z9K D   4       4.153  42.535 -22.8590  0.00  0.00     0.000 C
BRANCH 61 68
ATOM     68   O  Z9K D   4       4.761  44.795 -20.7480  0.00  0.00     0.000 O
ATOM     69   O  Z9K D   4       6.318  42.812 -20.3090  0.00  0.00     0.000 OA
ATOM     70   S  Z9K D   4       6.043  44.178 -19.9750  0.00  0.00     0.000 S
ATOM     71   O  Z9K D   4       6.118  44.750 -18.6660  0.00  0.00     0.000 OA
ATOM     72   O  Z9K D   4       6.649  45.064 -20.9160  0.00  0.00     0.000 OA
ENDBRANCH 61 68
BRANCH 64 73
ATOM     73   C  Z9K D   4       0.021  42.524 -18.3440  0.00  0.00     0.000 C
ATOM     74   O  Z9K D   4      -0.955  43.309 -18.5220  0.00  0.00     0.000 O
ATOM     75   O  Z9K D   4      -0.238  41.390 -17.8720  0.00  0.00     0.000 OA
ENDBRANCH 64 73
BRANCH 60 76
ATOM     76  O4  Z9L D   5       3.379  44.865 -17.5200  0.00  0.00     0.000 O
BRANCH 76 80
ATOM     77  C1  Z9L D   5       3.277  47.618 -14.6250  0.00  0.00     0.000 C
ATOM     78  C2  Z9L D   5       2.073  46.597 -14.3440  0.00  0.00     0.000 C
ATOM     79  C3  Z9L D   5       2.387  45.212 -15.2630  0.00  0.00     0.000 C
ATOM     80  C4  Z9L D   5       2.896  45.882 -16.6800  0.00  0.00     0.000 C
ATOM     81  C5  Z9L D   5       3.942  47.075 -16.9660  0.00  0.00     0.000 C
ATOM     82  O5  Z9L D   5       3.688  48.081 -15.9750  0.00  0.00     0.000 O
ATOM     83   C  Z9L D   5       5.611  47.978 -14.0630  0.00  0.00     0.000 C
ATOM     84   C  Z9L D   5       5.611  47.978 -14.0630  0.00  0.00     0.000 C
BRANCH 78 85
ATOM     85   O  Z9L D   5       2.096  46.263 -12.9940  0.00  0.00     0.000 O
ATOM     86   O  Z9L D   5       0.782  46.809 -11.6960  0.00  0.00     0.000 OA
ATOM     87   S  Z9L D   5       0.696  47.044 -13.1050  0.00  0.00     0.000 S
ATOM     88   O  Z9L D   5      -0.397  46.218 -13.5560  0.00  0.00     0.000 OA
ATOM     89   O  Z9L D   5       0.770  48.457 -13.2540  0.00  0.00     0.000 OA
ENDBRANCH 78 85
BRANCH 79 90
ATOM     90   O  Z9L D   5       1.207  44.574 -15.6370  0.00  0.00     0.000 O
ATOM     91   S  Z9L D   5       1.896  43.400 -14.8100  0.00  0.00     0.000 S
ATOM     92   O  Z9L D   5       2.316  43.565 -13.4430  0.00  0.00     0.000 OA
ATOM     93   O  Z9L D   5       2.625  42.544 -15.7120  0.00  0.00     0.000 O
ATOM     94   O  Z9L D   5       0.547  42.934 -14.7840  0.00  0.00     0.000 OA
ENDBRANCH 79 90
BRANCH 81 95
ATOM     95   C  Z9L D   5       4.144  47.555 -18.5600  0.00  0.00     0.000 C
ATOM     96   S  Z9L D   5       3.588  48.877 -19.9420  0.00  0.00     0.000 S
ATOM     97   O  Z9L D   5       2.879  48.130 -18.7520  0.00  0.00     0.000 O
ATOM     98   O  Z9L D   5       3.805  47.898 -20.9770  0.00  0.00     0.000 OA
ATOM     99   O  Z9L D   5       4.605  49.804 -19.5740  0.00  0.00     0.000 OA
ATOM    100   O  Z9L D   5       2.262  49.422 -20.1020  0.00  0.00     0.000 O
ENDBRANCH 81 95
ENDBRANCH 76 80
ENDBRANCH 60 76
ENDBRANCH 59 63
ENDBRANCH 37 59
ENDBRANCH 36 40
ENDBRANCH 23 36
ENDBRANCH 22 26
ENDBRANCH 1 22
TORSDOF 19
ENDMDL
MODEL 29
REMARK VINA RESULT:      -6.2     37.248     44.351
ROOT
ATOM      1  C1  Z9H D   1      11.329   2.619 -47.5750  0.00  0.00     0.000 C
ATOM      2  C2  Z9H D   1      11.921   1.266 -48.0370  0.00  0.00     0.000 C
ATOM      3  C3  Z9H D   1      11.221   0.348 -46.9890  0.00  0.00     0.000 C
ATOM      4  C4  Z9H D   1      11.353   0.815 -45.4810  0.00  0.00     0.000 C
ATOM      5  C5  Z9H D   1      11.087   2.301 -45.0100  0.00  0.00     0.000 C
ATOM      6  O5  Z9H D   1      11.466   3.049 -46.1930  0.00  0.00     0.000 O
ATOM      7   O  Z9H D   1      11.632  -1.014 -47.1250  0.00  0.00     0.000 O
ATOM      8   C  Z9H D   1      10.733  -1.858 -47.8630  0.00  0.00     0.000 C
ATOM      9   O  Z9H D   1      10.472  -0.029 -44.7330  0.00  0.00     0.000 O
ATOM     10   C  Z9H D   1      11.094  -1.130 -44.0620  0.00  0.00     0.000 C
ENDROOT
BRANCH 2 11
ATOM     11   O  Z9H D   1      11.231   1.041 -49.2390  0.00  0.00     0.000 O
ATOM     12   O  Z9H D   1      12.048   1.003 -50.9390  0.00  0.00     0.000 OA
ATOM     13   S  Z9H D   1      12.742   1.183 -49.7080  0.00  0.00     0.000 S
ATOM     14   O  Z9H D   1      13.461   0.020 -49.2730  0.00  0.00     0.000 OA
ATOM     15   O  Z9H D   1      13.212   2.544 -49.5890  0.00  0.00     0.000 O
ENDBRANCH 2 11
BRANCH 5 16
ATOM     16   C  Z9H D   1      11.699   2.687 -43.5010  0.00  0.00     0.000 C
ATOM     17   S  Z9H D   1      13.021   2.138 -42.0900  0.00  0.00     0.000 S
ATOM     18   O  Z9H D   1      13.012   2.220 -43.7020  0.00  0.00     0.000 O
ATOM     19   O  Z9H D   1      12.155   1.139 -41.5330  0.00  0.00     0.000 O
ATOM     20   O  Z9H D   1      13.171   3.437 -41.5340  0.00  0.00     0.000 OA
ATOM     21   O  Z9H D   1      14.332   1.623 -42.3580  0.00  0.00     0.000 OA
ENDBRANCH 5 16
BRANCH 1 22
ATOM     22  O4  GU1 D   2       9.872   2.750 -47.7530  0.00  0.00     0.000 O
BRANCH 22 26
ATOM     23  C1  GU1 D   2       6.807   5.283 -48.8310  0.00  0.00     0.000 C
ATOM     24  C2  GU1 D   2       8.078   5.431 -49.6530  0.00  0.00     0.000 C
ATOM     25  C3  GU1 D   2       8.954   4.232 -49.4350  0.00  0.00     0.000 C
ATOM     26  C4  GU1 D   2       9.196   3.998 -47.9510  0.00  0.00     0.000 C
ATOM     27  C5  GU1 D   2       7.861   3.968 -47.2000  0.00  0.00     0.000 C
ATOM     28  O5  GU1 D   2       7.123   5.162 -47.4490  0.00  0.00     0.000 O
ATOM     29   O  GU1 D   2       7.803   5.533 -51.0450  0.00  0.00     0.000 O
ATOM     30   C  GU1 D   2       7.763   6.869 -51.5270  0.00  0.00     0.000 C
ATOM     31   C  GU1 D   2      10.390   3.805 -51.3190  0.00  0.00     0.000 C
ATOM     32   O  GU1 D   2      10.214   4.471 -50.0710  0.00  0.00     0.000 O
BRANCH 27 33
ATOM     33   C  GU1 D   2       8.074   3.858 -45.7090  0.00  0.00     0.000 C
ATOM     34   O  GU1 D   2       8.593   4.789 -45.1300  0.00  0.00     0.000 OA
ATOM     35   O  GU1 D   2       7.726   2.855 -45.1050  0.00  0.00     0.000 O
ENDBRANCH 27 33
BRANCH 23 36
ATOM     36  O4  GU6 D   3       5.916   6.405 -48.6730  0.00  0.00     0.000 O
BRANCH 36 40
ATOM     37  C1  GU6 D   3       2.034   7.671 -48.8320  0.00  0.00     0.000 C
ATOM     38  C2  GU6 D   3       2.485   7.231 -47.4450  0.00  0.00     0.000 C
ATOM     39  C3  GU6 D   3       3.980   7.048 -47.4340  0.00  0.00     0.000 C
ATOM     40  C4  GU6 D   3       4.681   7.090 -48.7220  0.00  0.00     0.000 C
ATOM     41  C5  GU6 D   3       3.808   6.390 -49.8160  0.00  0.00     0.000 C
ATOM     42  O5  GU6 D   3       2.404   6.669 -49.7670  0.00  0.00     0.000 O
BRANCH 38 43
ATOM     43   O  GU6 D   3       2.109   8.188 -46.4730  0.00  0.00     0.000 O
ATOM     44   S  GU6 D   3       0.667   8.069 -45.9980  0.00  0.00     0.000 S
ATOM     45   O  GU6 D   3      -0.206   8.734 -46.9800  0.00  0.00     0.000 OA
ATOM     46   O  GU6 D   3       0.315   6.640 -45.9170  0.00  0.00     0.000 O
ATOM     47   O  GU6 D   3       0.554   8.687 -44.6810  0.00  0.00     0.000 OA
ENDBRANCH 38 43
BRANCH 39 48
ATOM     48   O  GU6 D   3       4.706   7.068 -46.2200  0.00  0.00     0.000 O
ATOM     49   S  GU6 D   3       4.615   6.142 -45.0080  0.00  0.00     0.000 S
ATOM     50   O  GU6 D   3       4.805   4.747 -45.4210  0.00  0.00     0.000 OA
ATOM     51   O  GU6 D   3       5.722   6.599 -44.1560  0.00  0.00     0.000 OA
ATOM     52   O  GU6 D   3       3.286   6.307 -44.3770  0.00  0.00     0.000 O
ENDBRANCH 39 48
BRANCH 41 53
ATOM     53   C  GU6 D   3       4.240   5.473 -50.9280  0.00  0.00     0.000 C
ATOM     54   O  GU6 D   3       3.395   5.977 -51.9300  0.00  0.00     0.000 O
ATOM     55   S  GU6 D   3       3.336   5.306 -53.3090  0.00  0.00     0.000 S
ATOM     56   O  GU6 D   3       2.753   3.960 -53.1040  0.00  0.00     0.000 O
ATOM     57   O  GU6 D   3       2.480   6.116 -54.1870  0.00  0.00     0.000 OA
ATOM     58   O  GU6 D   3       4.725   5.214 -53.8120  0.00  0.00     0.000 OA
ENDBRANCH 41 53
BRANCH 37 59
ATOM     59  O4  Z9K D   4       2.331   8.949 -49.4340  0.00  0.00     0.000 O
BRANCH 59 63
ATOM     60  C1  Z9K D   4      -0.604  11.506 -49.9770  0.00  0.00     0.000 C
ATOM     61  C2  Z9K D   4      -0.984  10.391 -50.9910  0.00  0.00     0.000 C
ATOM     62  C3  Z9K D   4       0.098   9.281 -50.6380  0.00  0.00     0.000 C
ATOM     63  C4  Z9K D   4       1.602   9.709 -50.4410  0.00  0.00     0.000 C
ATOM     64  C5  Z9K D   4       1.837  11.159 -49.9920  0.00  0.00     0.000 C
ATOM     65  O5  Z9K D   4       0.668  11.438 -49.1780  0.00  0.00     0.000 O
ATOM     66   O  Z9K D   4       0.142   8.205 -51.5930  0.00  0.00     0.000 O
ATOM     67   C  Z9K D   4      -0.798   7.170 -51.3540  0.00  0.00     0.000 C
BRANCH 61 68
ATOM     68   O  Z9K D   4      -2.223   9.875 -50.5900  0.00  0.00     0.000 O
ATOM     69   O  Z9K D   4      -1.979   9.821 -53.1370  0.00  0.00     0.000 OA
ATOM     70   S  Z9K D   4      -2.579  10.513 -52.0360  0.00  0.00     0.000 S
ATOM     71   O  Z9K D   4      -2.693  11.933 -51.9030  0.00  0.00     0.000 OA
ATOM     72   O  Z9K D   4      -3.811   9.900 -51.6590  0.00  0.00     0.000 OA
ENDBRANCH 61 68
BRANCH 64 73
ATOM     73   C  Z9K D   4       3.236  11.319 -49.3610  0.00  0.00     0.000 C
ATOM     74   O  Z9K D   4       4.284  11.276 -50.0690  0.00  0.00     0.000 O
ATOM     75   O  Z9K D   4       3.389  11.502 -48.1290  0.00  0.00     0.000 OA
ENDBRANCH 64 73
BRANCH 60 76
ATOM     76  O4  Z9L D   5      -0.526  12.925 -50.1960  0.00  0.00     0.000 O
BRANCH 76 80
ATOM     77  C1  Z9L D   5      -1.027  16.454 -48.3900  0.00  0.00     0.000 C
ATOM     78  C2  Z9L D   5       0.490  16.402 -48.9060  0.00  0.00     0.000 C
ATOM     79  C3  Z9L D   5       0.573  15.153 -50.0430  0.00  0.00     0.000 C
ATOM     80  C4  Z9L D   5      -0.331  13.991 -49.3030  0.00  0.00     0.000 C
ATOM     81  C5  Z9L D   5      -1.766  14.079 -48.5720  0.00  0.00     0.000 C
ATOM     82  O5  Z9L D   5      -1.758  15.297 -47.8130  0.00  0.00     0.000 O
ATOM     83   C  Z9L D   5      -3.234  17.178 -49.0970  0.00  0.00     0.000 C
ATOM     84   C  Z9L D   5      -3.234  17.178 -49.0970  0.00  0.00     0.000 C
BRANCH 78 85
ATOM     85   O  Z9L D   5       0.775  17.611 -49.5350  0.00  0.00     0.000 O
ATOM     86   O  Z9L D   5       1.942  18.974 -48.8360  0.00  0.00     0.000 OA
ATOM     87   S  Z9L D   5       1.745  17.681 -48.2560  0.00  0.00     0.000 S
ATOM     88   O  Z9L D   5       2.999  16.994 -48.4400  0.00  0.00     0.000 OA
ATOM     89   O  Z9L D   5       1.122  17.924 -47.0010  0.00  0.00     0.000 OA
ENDBRANCH 78 85
BRANCH 79 90
ATOM     90   O  Z9L D   5       1.840  14.576 -50.0720  0.00  0.00     0.000 O
ATOM     91   S  Z9L D   5       1.694  14.975 -51.6070  0.00  0.00     0.000 S
ATOM     92   O  Z9L D   5       1.420  16.324 -52.0300  0.00  0.00     0.000 OA
ATOM     93   O  Z9L D   5       1.183  13.848 -52.3460  0.00  0.00     0.000 O
ATOM     94   O  Z9L D   5       3.113  14.832 -51.5450  0.00  0.00     0.000 OA
ENDBRANCH 79 90
BRANCH 81 95
ATOM     95   C  Z9L D   5      -2.343  12.685 -47.8400  0.00  0.00     0.000 C
ATOM     96   S  Z9L D   5      -3.590  11.968 -46.4630  0.00  0.00     0.000 S
ATOM     97   O  Z9L D   5      -2.671  13.240 -46.5950  0.00  0.00     0.000 O
ATOM     98   O  Z9L D   5      -2.715  10.845 -46.2450  0.00  0.00     0.000 OA
ATOM     99   O  Z9L D   5      -4.678  11.893 -47.3780  0.00  0.00     0.000 OA
ATOM    100   O  Z9L D   5      -3.876  12.577 -45.1870  0.00  0.00     0.000 O
ENDBRANCH 81 95
ENDBRANCH 76 80
ENDBRANCH 60 76
ENDBRANCH 59 63
ENDBRANCH 37 59
ENDBRANCH 36 40
ENDBRANCH 23 36
ENDBRANCH 22 26
ENDBRANCH 1 22
TORSDOF 19
ENDMDL
MODEL 30
REMARK VINA RESULT:      -6.2     32.740     38.379
ROOT
ATOM      1  C1  Z9H D   1      -3.396  21.791 -22.6110  0.00  0.00     0.000 C
ATOM      2  C2  Z9H D   1      -2.346  21.884 -23.7440  0.00  0.00     0.000 C
ATOM      3  C3  Z9H D   1      -2.475  23.409 -24.0420  0.00  0.00     0.000 C
ATOM      4  C4  Z9H D   1      -3.952  23.936 -24.2630  0.00  0.00     0.000 C
ATOM      5  C5  Z9H D   1      -5.152  23.575 -23.2990  0.00  0.00     0.000 C
ATOM      6  O5  Z9H D   1      -4.755  22.264 -22.8250  0.00  0.00     0.000 O
ATOM      7   O  Z9H D   1      -1.638  23.805 -25.1300  0.00  0.00     0.000 O
ATOM      8   C  Z9H D   1      -0.381  24.396 -24.7580  0.00  0.00     0.000 C
ATOM      9   O  Z9H D   1      -3.855  25.364 -24.3000  0.00  0.00     0.000 O
ATOM     10   C  Z9H D   1      -3.843  25.949 -25.6060  0.00  0.00     0.000 C
ENDROOT
BRANCH 2 11
ATOM     11   O  Z9H D   1      -1.141  21.749 -23.0380  0.00  0.00     0.000 O
ATOM     12   O  Z9H D   1       0.070  20.322 -23.2720  0.00  0.00     0.000 OA
ATOM     13   S  Z9H D   1      -1.132  20.496 -24.0150  0.00  0.00     0.000 S
ATOM     14   O  Z9H D   1      -0.923  20.970 -25.3540  0.00  0.00     0.000 OA
ATOM     15   O  Z9H D   1      -2.113  19.509 -23.6270  0.00  0.00     0.000 O
ENDBRANCH 2 11
BRANCH 5 16
ATOM     16   C  Z9H D   1      -6.677  23.847 -23.9330  0.00  0.00     0.000 C
ATOM     17   S  Z9H D   1      -8.492  24.617 -23.5400  0.00  0.00     0.000 S
ATOM     18   O  Z9H D   1      -6.962  25.040 -23.2420  0.00  0.00     0.000 O
ATOM     19   O  Z9H D   1      -8.941  23.448 -22.8400  0.00  0.00     0.000 O
ATOM     20   O  Z9H D   1      -8.820  24.888 -24.8960  0.00  0.00     0.000 OA
ATOM     21   O  Z9H D   1      -8.722  25.815 -22.7870  0.00  0.00     0.000 OA
ENDBRANCH 5 16
BRANCH 1 22
ATOM     22  O4  GU1 D   2      -3.047  22.527 -21.3830  0.00  0.00     0.000 O
BRANCH 22 26
ATOM     23  C1  GU1 D   2      -3.139  22.384 -17.2670  0.00  0.00     0.000 C
ATOM     24  C2  GU1 D   2      -3.031  21.030 -17.9520  0.00  0.00     0.000 C
ATOM     25  C3  GU1 D   2      -2.625  21.228 -19.3830  0.00  0.00     0.000 C
ATOM     26  C4  GU1 D   2      -3.556  22.207 -20.0830  0.00  0.00     0.000 C
ATOM     27  C5  GU1 D   2      -3.676  23.494 -19.2610  0.00  0.00     0.000 C
ATOM     28  O5  GU1 D   2      -4.097  23.199 -17.9310  0.00  0.00     0.000 O
ATOM     29   O  GU1 D   2      -2.065  20.193 -17.3270  0.00  0.00     0.000 O
ATOM     30   C  GU1 D   2      -2.617  19.275 -16.3940  0.00  0.00     0.000 C
ATOM     31   C  GU1 D   2      -1.448  19.321 -20.2620  0.00  0.00     0.000 C
ATOM     32   O  GU1 D   2      -2.702  19.966 -20.0540  0.00  0.00     0.000 O
BRANCH 27 33
ATOM     33   C  GU1 D   2      -4.687  24.438 -19.8680  0.00  0.00     0.000 C
ATOM     34   O  GU1 D   2      -4.289  25.478 -20.3510  0.00  0.00     0.000 OA
ATOM     35   O  GU1 D   2      -5.875  24.155 -19.8730  0.00  0.00     0.000 O
ENDBRANCH 27 33
BRANCH 23 36
ATOM     36  O4  GU6 D   3      -3.748  22.486 -15.9640  0.00  0.00     0.000 O
BRANCH 36 40
ATOM     37  C1  GU6 D   3      -4.406  20.722 -12.3380  0.00  0.00     0.000 C
ATOM     38  C2  GU6 D   3      -2.945  20.722 -12.7700  0.00  0.00     0.000 C
ATOM     39  C3  GU6 D   3      -2.772  21.621 -13.9660  0.00  0.00     0.000 C
ATOM     40  C4  GU6 D   3      -3.984  22.130 -14.6170  0.00  0.00     0.000 C
ATOM     41  C5  GU6 D   3      -5.083  21.016 -14.6210  0.00  0.00     0.000 C
ATOM     42  O5  GU6 D   3      -5.197  20.248 -13.4170  0.00  0.00     0.000 O
BRANCH 38 43
ATOM     43   O  GU6 D   3      -2.114  21.159 -11.7130  0.00  0.00     0.000 O
ATOM     44   S  GU6 D   3      -1.242  20.068 -11.1050  0.00  0.00     0.000 S
ATOM     45   O  GU6 D   3      -2.053  19.304 -10.1420  0.00  0.00     0.000 OA
ATOM     46   O  GU6 D   3      -0.789  19.172 -12.1840  0.00  0.00     0.000 O
ATOM     47   O  GU6 D   3      -0.092  20.691 -10.4570  0.00  0.00     0.000 OA
ENDBRANCH 38 43
BRANCH 39 48
ATOM     48   O  GU6 D   3      -1.501  22.142 -14.3050  0.00  0.00     0.000 O
ATOM     49   S  GU6 D   3      -0.869  23.489 -13.9570  0.00  0.00     0.000 S
ATOM     50   O  GU6 D   3      -0.871  23.687 -12.5030  0.00  0.00     0.000 OA
ATOM     51   O  GU6 D   3       0.501  23.357 -14.4720  0.00  0.00     0.000 OA
ATOM     52   O  GU6 D   3      -1.640  24.566 -14.6160  0.00  0.00     0.000 O
ENDBRANCH 39 48
BRANCH 41 53
ATOM     53   C  GU6 D   3      -6.052  20.644 -15.7100  0.00  0.00     0.000 C
ATOM     54   O  GU6 D   3      -6.549  21.931 -15.9710  0.00  0.00     0.000 O
ATOM     55   S  GU6 D   3      -7.699  22.135 -16.9660  0.00  0.00     0.000 S
ATOM     56   O  GU6 D   3      -8.894  21.488 -16.3760  0.00  0.00     0.000 O
ATOM     57   O  GU6 D   3      -7.921  23.578 -17.1370  0.00  0.00     0.000 OA
ATOM     58   O  GU6 D   3      -7.307  21.475 -18.2310  0.00  0.00     0.000 OA
ENDBRANCH 41 53
BRANCH 37 59
ATOM     59  O4  Z9K D   4      -5.099  21.849 -11.7610  0.00  0.00     0.000 O
BRANCH 59 63
ATOM     60  C1  Z9K D   4      -5.461  21.298  -7.8860  0.00  0.00     0.000 C
ATOM     61  C2  Z9K D   4      -6.642  20.442  -8.4240  0.00  0.00     0.000 C
ATOM     62  C3  Z9K D   4      -6.380  20.518  -9.9900  0.00  0.00     0.000 C
ATOM     63  C4  Z9K D   4      -6.034  21.910 -10.6440  0.00  0.00     0.000 C
ATOM     64  C5  Z9K D   4      -5.374  22.944  -9.7190  0.00  0.00     0.000 C
ATOM     65  O5  Z9K D   4      -4.602  22.117  -8.8100  0.00  0.00     0.000 O
ATOM     66   O  Z9K D   4      -7.471  20.003 -10.7750  0.00  0.00     0.000 O
ATOM     67   C  Z9K D   4      -7.436  18.599 -10.9760  0.00  0.00     0.000 C
BRANCH 61 68
ATOM     68   O  Z9K D   4      -6.393  19.115  -8.0470  0.00  0.00     0.000 O
ATOM     69   O  Z9K D   4      -8.902  19.617  -8.0650  0.00  0.00     0.000 OA
ATOM     70   S  Z9K D   4      -7.752  19.446  -7.2300  0.00  0.00     0.000 S
ATOM     71   O  Z9K D   4      -7.425  20.238  -6.0840  0.00  0.00     0.000 OA
ATOM     72   O  Z9K D   4      -7.541  18.067  -6.9300  0.00  0.00     0.000 OA
ENDBRANCH 61 68
BRANCH 64 73
ATOM     73   C  Z9K D   4      -4.642  24.027 -10.5400  0.00  0.00     0.000 C
ATOM     74   O  Z9K D   4      -5.283  24.868 -11.2350  0.00  0.00     0.000 O
ATOM     75   O  Z9K D   4      -3.390  24.119 -10.5460  0.00  0.00     0.000 OA
ENDBRANCH 64 73
BRANCH 60 76
ATOM     76  O4  Z9L D   5      -5.475  22.283  -6.8390  0.00  0.00     0.000 O
BRANCH 76 80
ATOM     77  C1  Z9L D   5      -3.499  23.589  -3.6200  0.00  0.00     0.000 C
ATOM     78  C2  Z9L D   5      -3.508  24.789  -4.6850  0.00  0.00     0.000 C
ATOM     79  C3  Z9L D   5      -4.706  24.420  -5.8210  0.00  0.00     0.000 C
ATOM     80  C4  Z9L D   5      -4.442  22.810  -6.0470  0.00  0.00     0.000 C
ATOM     81  C5  Z9L D   5      -4.200  21.622  -4.9840  0.00  0.00     0.000 C
ATOM     82  O5  Z9L D   5      -3.332  22.156  -3.9720  0.00  0.00     0.000 O
ATOM     83   C  Z9L D   5      -4.776  22.724  -1.7460  0.00  0.00     0.000 C
ATOM     84   C  Z9L D   5      -4.776  22.724  -1.7460  0.00  0.00     0.000 C
BRANCH 78 85
ATOM     85   O  Z9L D   5      -3.859  25.957  -4.0150  0.00  0.00     0.000 O
ATOM     86   O  Z9L D   5      -2.672  27.436  -3.6740  0.00  0.00     0.000 OA
ATOM     87   S  Z9L D   5      -2.354  26.290  -4.4690  0.00  0.00     0.000 S
ATOM     88   O  Z9L D   5      -2.250  26.787  -5.8190  0.00  0.00     0.000 OA
ATOM     89   O  Z9L D   5      -1.316  25.621  -3.7620  0.00  0.00     0.000 OA
ENDBRANCH 78 85
BRANCH 79 90
ATOM     90   O  Z9L D   5      -4.401  24.955  -7.0700  0.00  0.00     0.000 O
ATOM     91   S  Z9L D   5      -5.810  25.653  -6.8170  0.00  0.00     0.000 S
ATOM     92   O  Z9L D   5      -6.075  26.452  -5.6500  0.00  0.00     0.000 OA
ATOM     93   O  Z9L D   5      -6.850  24.864  -7.4280  0.00  0.00     0.000 O
ATOM     94   O  Z9L D   5      -5.301  26.529  -7.8220  0.00  0.00     0.000 OA
ENDBRANCH 79 90
BRANCH 81 95
ATOM     95   C  Z9L D   5      -3.868  20.097  -5.5970  0.00  0.00     0.000 C
ATOM     96   S  Z9L D   5      -2.420  18.829  -6.1090  0.00  0.00     0.000 S
ATOM     97   O  Z9L D   5      -2.629  20.388  -6.1860  0.00  0.00     0.000 O
ATOM     98   O  Z9L D   5      -3.275  18.246  -7.1110  0.00  0.00     0.000 OA
ATOM     99   O  Z9L D   5      -2.333  18.280  -4.7980  0.00  0.00     0.000 OA
ATOM    100   O  Z9L D   5      -1.168  19.187  -6.7300  0.00  0.00     0.000 O
ENDBRANCH 81 95
ENDBRANCH 76 80
ENDBRANCH 60 76
ENDBRANCH 59 63
ENDBRANCH 37 59
ENDBRANCH 36 40
ENDBRANCH 23 36
ENDBRANCH 22 26
ENDBRANCH 1 22
TORSDOF 19
ENDMDL
MODEL 31
REMARK VINA RESULT:      -6.2     24.874     30.723
ROOT
ATOM      1  C1  Z9H D   1      16.950   1.898 -42.1380  0.00  0.00     0.000 C
ATOM      2  C2  Z9H D   1      17.487   2.275 -43.5390  0.00  0.00     0.000 C
ATOM      3  C3  Z9H D   1      16.129   2.669 -44.1990  0.00  0.00     0.000 C
ATOM      4  C4  Z9H D   1      14.963   1.609 -44.0380  0.00  0.00     0.000 C
ATOM      5  C5  Z9H D   1      14.599   0.926 -42.6600  0.00  0.00     0.000 C
ATOM      6  O5  Z9H D   1      15.889   0.913 -41.9970  0.00  0.00     0.000 O
ATOM      7   O  Z9H D   1      16.295   3.022 -45.5730  0.00  0.00     0.000 O
ATOM      8   C  Z9H D   1      16.371   4.432 -45.8430  0.00  0.00     0.000 C
ATOM      9   O  Z9H D   1      13.779   2.258 -44.5140  0.00  0.00     0.000 O
ATOM     10   C  Z9H D   1      13.393   1.933 -45.8530  0.00  0.00     0.000 C
ENDROOT
BRANCH 2 11
ATOM     11   O  Z9H D   1      18.137   3.493 -43.2850  0.00  0.00     0.000 O
ATOM     12   O  Z9H D   1      20.001   3.746 -43.4130  0.00  0.00     0.000 OA
ATOM     13   S  Z9H D   1      19.324   2.530 -43.7150  0.00  0.00     0.000 S
ATOM     14   O  Z9H D   1      19.205   2.266 -45.1210  0.00  0.00     0.000 OA
ATOM     15   O  Z9H D   1      19.599   1.536 -42.7030  0.00  0.00     0.000 O
ENDBRANCH 2 11
BRANCH 5 16
ATOM     16   C  Z9H D   1      13.667  -0.458 -42.7790  0.00  0.00     0.000 C
ATOM     17   S  Z9H D   1      12.136  -1.468 -41.9550  0.00  0.00     0.000 S
ATOM     18   O  Z9H D   1      12.463   0.078 -42.2850  0.00  0.00     0.000 O
ATOM     19   O  Z9H D   1      12.949  -2.049 -40.9260  0.00  0.00     0.000 O
ATOM     20   O  Z9H D   1      11.774  -2.158 -43.1440  0.00  0.00     0.000 OA
ATOM     21   O  Z9H D   1      10.952  -0.860 -41.4240  0.00  0.00     0.000 OA
ENDBRANCH 5 16
BRANCH 1 22
ATOM     22  O4  GU1 D   2      16.378   3.019 -41.3710  0.00  0.00     0.000 O
BRANCH 22 26
ATOM     23  C1  GU1 D   2      15.881   4.661 -37.6260  0.00  0.00     0.000 C
ATOM     24  C2  GU1 D   2      17.245   4.035 -37.8740  0.00  0.00     0.000 C
ATOM     25  C3  GU1 D   2      17.436   3.827 -39.3490  0.00  0.00     0.000 C
ATOM     26  C4  GU1 D   2      16.274   3.045 -39.9430  0.00  0.00     0.000 C
ATOM     27  C5  GU1 D   2      14.946   3.699 -39.5490  0.00  0.00     0.000 C
ATOM     28  O5  GU1 D   2      14.851   3.820 -38.1320  0.00  0.00     0.000 O
ATOM     29   O  GU1 D   2      18.303   4.859 -37.4010  0.00  0.00     0.000 O
ATOM     30   C  GU1 D   2      18.774   4.505 -36.1080  0.00  0.00     0.000 C
ATOM     31   C  GU1 D   2      19.761   3.850 -39.9720  0.00  0.00     0.000 C
ATOM     32   O  GU1 D   2      18.640   3.079 -39.5470  0.00  0.00     0.000 O
BRANCH 27 33
ATOM     33   C  GU1 D   2      13.771   2.877 -40.0230  0.00  0.00     0.000 C
ATOM     34   O  GU1 D   2      13.123   3.286 -40.9650  0.00  0.00     0.000 OA
ATOM     35   O  GU1 D   2      13.485   1.826 -39.4710  0.00  0.00     0.000 O
ENDBRANCH 27 33
BRANCH 23 36
ATOM     36  O4  GU6 D   3      15.355   4.736 -36.2860  0.00  0.00     0.000 O
BRANCH 36 40
ATOM     37  C1  GU6 D   3      13.923   6.581 -32.9340  0.00  0.00     0.000 C
ATOM     38  C2  GU6 D   3      13.495   5.125 -33.0690  0.00  0.00     0.000 C
ATOM     39  C3  GU6 D   3      14.284   4.467 -34.1710  0.00  0.00     0.000 C
ATOM     40  C4  GU6 D   3      15.107   5.328 -35.0280  0.00  0.00     0.000 C
ATOM     41  C5  GU6 D   3      14.355   6.675 -35.2920  0.00  0.00     0.000 C
ATOM     42  O5  GU6 D   3      13.676   7.242 -34.1660  0.00  0.00     0.000 O
BRANCH 38 43
ATOM     43   O  GU6 D   3      13.695   4.433 -31.8520  0.00  0.00     0.000 O
ATOM     44   S  GU6 D   3      12.432   3.820 -31.2620  0.00  0.00     0.000 S
ATOM     45   O  GU6 D   3      11.698   4.870 -30.5350  0.00  0.00     0.000 OA
ATOM     46   O  GU6 D   3      11.596   3.311 -32.3640  0.00  0.00     0.000 O
ATOM     47   O  GU6 D   3      12.811   2.725 -30.3750  0.00  0.00     0.000 OA
ENDBRANCH 38 43
BRANCH 39 48
ATOM     48   O  GU6 D   3      14.412   3.060 -34.2320  0.00  0.00     0.000 O
ATOM     49   S  GU6 D   3      15.533   2.154 -33.7250  0.00  0.00     0.000 S
ATOM     50   O  GU6 D   3      15.768   2.392 -32.2960  0.00  0.00     0.000 OA
ATOM     51   O  GU6 D   3      15.002   0.804 -33.9570  0.00  0.00     0.000 OA
ATOM     52   O  GU6 D   3      16.765   2.437 -34.4950  0.00  0.00     0.000 O
ENDBRANCH 39 48
BRANCH 41 53
ATOM     53   C  GU6 D   3      14.257   7.471 -36.5650  0.00  0.00     0.000 C
ATOM     54   O  GU6 D   3      15.452   8.195 -36.4300  0.00  0.00     0.000 O
ATOM     55   S  GU6 D   3      15.818   9.290 -37.4410  0.00  0.00     0.000 S
ATOM     56   O  GU6 D   3      14.817  10.370 -37.2820  0.00  0.00     0.000 O
ATOM     57   O  GU6 D   3      17.168   9.782 -37.1310  0.00  0.00     0.000 OA
ATOM     58   O  GU6 D   3      15.739   8.685 -38.7900  0.00  0.00     0.000 OA
ENDBRANCH 41 53
BRANCH 37 59
ATOM     59  O4  Z9K D   4      15.212   7.025 -32.4600  0.00  0.00     0.000 O
BRANCH 59 63
ATOM     60  C1  Z9K D   4      15.710   5.888 -28.7310  0.00  0.00     0.000 C
ATOM     61  C2  Z9K D   4      14.831   7.156 -28.5440  0.00  0.00     0.000 C
ATOM     62  C3  Z9K D   4      14.480   7.505 -30.0560  0.00  0.00     0.000 C
ATOM     63  C4  Z9K D   4      15.627   7.474 -31.1370  0.00  0.00     0.000 C
ATOM     64  C5  Z9K D   4      16.815   6.549 -30.8340  0.00  0.00     0.000 C
ATOM     65  O5  Z9K D   4      16.199   5.466 -30.0890  0.00  0.00     0.000 O
ATOM     66   O  Z9K D   4      13.859   8.793 -30.2130  0.00  0.00     0.000 O
ATOM     67   C  Z9K D   4      12.452   8.791 -30.0300  0.00  0.00     0.000 C
BRANCH 61 68
ATOM     68   O  Z9K D   4      13.633   6.742 -27.9470  0.00  0.00     0.000 O
ATOM     69   O  Z9K D   4      14.248   9.121 -27.2340  0.00  0.00     0.000 OA
ATOM     70   S  Z9K D   4      14.234   7.748 -26.8290  0.00  0.00     0.000 S
ATOM     71   O  Z9K D   4      15.273   7.078 -26.1090  0.00  0.00     0.000 OA
ATOM     72   O  Z9K D   4      12.967   7.394 -26.2750  0.00  0.00     0.000 OA
ENDBRANCH 61 68
BRANCH 64 73
ATOM     73   C  Z9K D   4      17.593   6.214 -32.1240  0.00  0.00     0.000 C
ATOM     74   O  Z9K D   4      18.257   7.099 -32.7380  0.00  0.00     0.000 O
ATOM     75   O  Z9K D   4      17.603   5.056 -32.6090  0.00  0.00     0.000 OA
ENDBRANCH 64 73
BRANCH 60 76
ATOM     76  O4  Z9L D   5      16.932   5.540 -28.0570  0.00  0.00     0.000 O
BRANCH 76 80
ATOM     77  C1  Z9L D   5      18.767   2.671 -25.9650  0.00  0.00     0.000 C
ATOM     78  C2  Z9L D   5      19.597   2.867 -27.3230  0.00  0.00     0.000 C
ATOM     79  C3  Z9L D   5      19.117   4.351 -27.9770  0.00  0.00     0.000 C
ATOM     80  C4  Z9L D   5      17.489   4.292 -27.7330  0.00  0.00     0.000 C
ATOM     81  C5  Z9L D   5      16.632   3.872 -26.4330  0.00  0.00     0.000 C
ATOM     82  O5  Z9L D   5      17.286   2.724 -25.8720  0.00  0.00     0.000 O
ATOM     83   C  Z9L D   5      18.692   3.465 -23.6730  0.00  0.00     0.000 C
ATOM     84   C  Z9L D   5      18.692   3.465 -23.6730  0.00  0.00     0.000 C
BRANCH 78 85
ATOM     85   O  Z9L D   5      20.949   2.927 -26.9980  0.00  0.00     0.000 O
ATOM     86   O  Z9L D   5      22.251   1.573 -27.4240  0.00  0.00     0.000 OA
ATOM     87   S  Z9L D   5      20.890   1.575 -27.8640  0.00  0.00     0.000 S
ATOM     88   O  Z9L D   5      20.957   1.793 -29.2880  0.00  0.00     0.000 OA
ATOM     89   O  Z9L D   5      20.292   0.446 -27.2370  0.00  0.00     0.000 OA
ENDBRANCH 78 85
BRANCH 79 90
ATOM     90   O  Z9L D   5      19.216   4.350 -29.3650  0.00  0.00     0.000 O
ATOM     91   S  Z9L D   5      20.197   5.558 -29.0290  0.00  0.00     0.000 S
ATOM     92   O  Z9L D   5      21.326   5.412 -28.1480  0.00  0.00     0.000 OA
ATOM     93   O  Z9L D   5      19.467   6.800 -29.0990  0.00  0.00     0.000 O
ATOM     94   O  Z9L D   5      20.650   5.260 -30.3500  0.00  0.00     0.000 OA
ENDBRANCH 79 90
BRANCH 81 95
ATOM     95   C  Z9L D   5      14.962   3.845 -26.5890  0.00  0.00     0.000 C
ATOM     96   S  Z9L D   5      13.267   3.156 -25.8030  0.00  0.00     0.000 S
ATOM     97   O  Z9L D   5      14.730   2.602 -25.9820  0.00  0.00     0.000 O
ATOM     98   O  Z9L D   5      12.657   3.146 -27.1080  0.00  0.00     0.000 OA
ATOM     99   O  Z9L D   5      13.130   4.272 -24.9290  0.00  0.00     0.000 OA
ATOM    100   O  Z9L D   5      13.083   1.857 -25.2050  0.00  0.00     0.000 O
ENDBRANCH 81 95
ENDBRANCH 76 80
ENDBRANCH 60 76
ENDBRANCH 59 63
ENDBRANCH 37 59
ENDBRANCH 36 40
ENDBRANCH 23 36
ENDBRANCH 22 26
ENDBRANCH 1 22
TORSDOF 19
ENDMDL
MODEL 32
REMARK VINA RESULT:      -6.1     30.018     36.305
ROOT
ATOM      1  C1  Z9H D   1       7.866  42.700 -34.2010  0.00  0.00     0.000 C
ATOM      2  C2  Z9H D   1       7.376  43.052 -35.6260  0.00  0.00     0.000 C
ATOM      3  C3  Z9H D   1       6.938  41.622 -36.0700  0.00  0.00     0.000 C
ATOM      4  C4  Z9H D   1       8.014  40.481 -35.8430  0.00  0.00     0.000 C
ATOM      5  C5  Z9H D   1       8.804  40.296 -34.4860  0.00  0.00     0.000 C
ATOM      6  O5  Z9H D   1       8.864  41.661 -34.0000  0.00  0.00     0.000 O
ATOM      7   O  Z9H D   1       6.478  41.609 -37.4220  0.00  0.00     0.000 O
ATOM      8   C  Z9H D   1       5.051  41.657 -37.5880  0.00  0.00     0.000 C
ATOM      9   O  Z9H D   1       7.335  39.249 -36.1080  0.00  0.00     0.000 O
ATOM     10   C  Z9H D   1       7.555  38.690 -37.4060  0.00  0.00     0.000 C
ENDROOT
BRANCH 2 11
ATOM     11   O  Z9H D   1       6.179  43.736 -35.3630  0.00  0.00     0.000 O
ATOM     12   O  Z9H D   1       5.872  45.543 -35.8070  0.00  0.00     0.000 OA
ATOM     13   S  Z9H D   1       7.063  44.824 -36.1110  0.00  0.00     0.000 S
ATOM     14   O  Z9H D   1       7.176  44.443 -37.4900  0.00  0.00     0.000 OA
ATOM     15   O  Z9H D   1       8.155  45.285 -35.2840  0.00  0.00     0.000 O
ENDBRANCH 2 11
BRANCH 5 16
ATOM     16   C  Z9H D   1      10.180  39.349 -34.5910  0.00  0.00     0.000 C
ATOM     17   S  Z9H D   1      11.350  38.309 -35.8520  0.00  0.00     0.000 S
ATOM     18   O  Z9H D   1      10.572  39.723 -35.8900  0.00  0.00     0.000 O
ATOM     19   O  Z9H D   1      10.500  37.153 -35.8400  0.00  0.00     0.000 O
ATOM     20   O  Z9H D   1      12.528  38.419 -35.0640  0.00  0.00     0.000 OA
ATOM     21   O  Z9H D   1      11.677  38.720 -37.1860  0.00  0.00     0.000 OA
ENDBRANCH 5 16
BRANCH 1 22
ATOM     22  O4  GU1 D   2       6.811  42.239 -33.2800  0.00  0.00     0.000 O
BRANCH 22 26
ATOM     23  C1  GU1 D   2       5.334  42.601 -29.4520  0.00  0.00     0.000 C
ATOM     24  C2  GU1 D   2       6.035  43.840 -29.9860  0.00  0.00     0.000 C
ATOM     25  C3  GU1 D   2       6.180  43.726 -31.4760  0.00  0.00     0.000 C
ATOM     26  C4  GU1 D   2       6.851  42.415 -31.8590  0.00  0.00     0.000 C
ATOM     27  C5  GU1 D   2       6.132  41.242 -31.1880  0.00  0.00     0.000 C
ATOM     28  O5  GU1 D   2       6.078  41.432 -29.7760  0.00  0.00     0.000 O
ATOM     29   O  GU1 D   2       5.308  45.028 -29.7000  0.00  0.00     0.000 O
ATOM     30   C  GU1 D   2       5.760  45.712 -28.5390  0.00  0.00     0.000 C
ATOM     31   C  GU1 D   2       6.279  45.881 -32.5430  0.00  0.00     0.000 C
ATOM     32   O  GU1 D   2       6.995  44.809 -31.9350  0.00  0.00     0.000 O
BRANCH 27 33
ATOM     33   C  GU1 D   2       6.848  39.938 -31.4520  0.00  0.00     0.000 C
ATOM     34   O  GU1 D   2       7.975  39.802 -31.0230  0.00  0.00     0.000 OA
ATOM     35   O  GU1 D   2       6.299  39.045 -32.0780  0.00  0.00     0.000 O
ENDBRANCH 27 33
BRANCH 23 36
ATOM     36  O4  GU6 D   3       5.293  42.351 -28.0330  0.00  0.00     0.000 O
BRANCH 36 40
ATOM     37  C1  GU6 D   3       4.051  41.653 -24.2030  0.00  0.00     0.000 C
ATOM     38  C2  GU6 D   3       5.444  42.263 -24.3010  0.00  0.00     0.000 C
ATOM     39  C3  GU6 D   3       5.694  42.729 -25.7110  0.00  0.00     0.000 C
ATOM     40  C4  GU6 D   3       4.723  42.338 -26.7400  0.00  0.00     0.000 C
ATOM     41  C5  GU6 D   3       4.231  40.879 -26.4660  0.00  0.00     0.000 C
ATOM     42  O5  GU6 D   3       3.976  40.552 -25.0950  0.00  0.00     0.000 O
BRANCH 38 43
ATOM     43   O  GU6 D   3       5.575  43.349 -23.4030  0.00  0.00     0.000 O
ATOM     44   S  GU6 D   3       6.297  43.010 -22.1060  0.00  0.00     0.000 S
ATOM     45   O  GU6 D   3       5.337  42.376 -21.1870  0.00  0.00     0.000 OA
ATOM     46   O  GU6 D   3       7.385  42.062 -22.4080  0.00  0.00     0.000 O
ATOM     47   O  GU6 D   3       6.846  44.237 -21.5380  0.00  0.00     0.000 OA
ENDBRANCH 38 43
BRANCH 39 48
ATOM     48   O  GU6 D   3       6.689  43.694 -25.9920  0.00  0.00     0.000 O
ATOM     49   S  GU6 D   3       8.186  43.514 -26.2420  0.00  0.00     0.000 S
ATOM     50   O  GU6 D   3       8.406  42.562 -27.3370  0.00  0.00     0.000 OA
ATOM     51   O  GU6 D   3       8.626  44.865 -26.6170  0.00  0.00     0.000 OA
ATOM     52   O  GU6 D   3       8.823  43.016 -25.0020  0.00  0.00     0.000 O
ENDBRANCH 39 48
BRANCH 41 53
ATOM     53   C  GU6 D   3       3.970  39.767 -27.4470  0.00  0.00     0.000 C
ATOM     54   O  GU6 D   3       3.047  40.444 -28.2610  0.00  0.00     0.000 O
ATOM     55   S  GU6 D   3       2.338  39.712 -29.4080  0.00  0.00     0.000 S
ATOM     56   O  GU6 D   3       1.466  38.688 -28.7880  0.00  0.00     0.000 O
ATOM     57   O  GU6 D   3       1.539  40.687 -30.1640  0.00  0.00     0.000 OA
ATOM     58   O  GU6 D   3       3.387  39.083 -30.2420  0.00  0.00     0.000 OA
ENDBRANCH 41 53
BRANCH 37 59
ATOM     59  O4  Z9K D   4       2.814  42.388 -24.3230  0.00  0.00     0.000 O
BRANCH 59 63
ATOM     60  C1  Z9K D   4       2.514  44.260 -20.8810  0.00  0.00     0.000 C
ATOM     61  C2  Z9K D   4       1.751  42.942 -20.5740  0.00  0.00     0.000 C
ATOM     62  C3  Z9K D   4       2.033  42.114 -21.9020  0.00  0.00     0.000 C
ATOM     63  C4  Z9K D   4       1.875  42.827 -23.2990  0.00  0.00     0.000 C
ATOM     64  C5  Z9K D   4       2.072  44.351 -23.3050  0.00  0.00     0.000 C
ATOM     65  O5  Z9K D   4       3.054  44.553 -22.2540  0.00  0.00     0.000 O
ATOM     66   O  Z9K D   4       1.240  40.918 -22.0060  0.00  0.00     0.000 O
ATOM     67   C  Z9K D   4       1.793  39.790 -21.3500  0.00  0.00     0.000 C
BRANCH 61 68
ATOM     68   O  Z9K D   4       2.451  42.291 -19.5490  0.00  0.00     0.000 O
ATOM     69   O  Z9K D   4      -0.062  41.830 -19.3930  0.00  0.00     0.000 OA
ATOM     70   S  Z9K D   4       1.023  42.588 -18.8440  0.00  0.00     0.000 S
ATOM     71   O  Z9K D   4       0.970  43.964 -18.4590  0.00  0.00     0.000 OA
ATOM     72   O  Z9K D   4       1.711  41.839 -17.8420  0.00  0.00     0.000 OA
ENDBRANCH 61 68
BRANCH 64 73
ATOM     73   C  Z9K D   4       2.393  44.858 -24.7270  0.00  0.00     0.000 C
ATOM     74   O  Z9K D   4       3.518  45.367 -25.0030  0.00  0.00     0.000 O
ATOM     75   O  Z9K D   4       1.558  44.779 -25.6620  0.00  0.00     0.000 OA
ENDBRANCH 64 73
BRANCH 60 76
ATOM     76  O4  Z9L D   5       2.098  45.614 -20.6320  0.00  0.00     0.000 O
BRANCH 76 80
ATOM     77  C1  Z9L D   5       3.352  49.229 -19.4810  0.00  0.00     0.000 C
ATOM     78  C2  Z9L D   5       2.847  49.368 -20.9970  0.00  0.00     0.000 C
ATOM     79  C3  Z9L D   5       1.911  47.998 -21.3240  0.00  0.00     0.000 C
ATOM     80  C4  Z9L D   5       2.819  46.819 -20.6160  0.00  0.00     0.000 C
ATOM     81  C5  Z9L D   5       3.531  46.761 -19.1700  0.00  0.00     0.000 C
ATOM     82  O5  Z9L D   5       4.098  48.061 -18.9480  0.00  0.00     0.000 O
ATOM     83   C  Z9L D   5       2.547  49.441 -17.2000  0.00  0.00     0.000 C
ATOM     84   C  Z9L D   5       2.547  49.441 -17.2000  0.00  0.00     0.000 C
BRANCH 78 85
ATOM     85   O  Z9L D   5       2.043  50.501 -21.0820  0.00  0.00     0.000 O
ATOM     86   O  Z9L D   5       2.525  52.134 -21.9820  0.00  0.00     0.000 OA
ATOM     87   S  Z9L D   5       3.293  50.927 -21.9980  0.00  0.00     0.000 S
ATOM     88   O  Z9L D   5       3.209  50.448 -23.3560  0.00  0.00     0.000 OA
ATOM     89   O  Z9L D   5       4.500  51.242 -21.3150  0.00  0.00     0.000 OA
ENDBRANCH 78 85
BRANCH 79 90
ATOM     90   O  Z9L D   5       1.968  47.655 -22.6720  0.00  0.00     0.000 O
ATOM     91   S  Z9L D   5       0.394  47.840 -22.5100  0.00  0.00     0.000 S
ATOM     92   O  Z9L D   5      -0.191  49.060 -22.0200  0.00  0.00     0.000 OA
ATOM     93   O  Z9L D   5      -0.210  46.562 -22.2280  0.00  0.00     0.000 O
ATOM     94   O  Z9L D   5       0.490  47.957 -23.9290  0.00  0.00     0.000 OA
ENDBRANCH 79 90
BRANCH 81 95
ATOM     95   C  Z9L D   5       4.465  45.412 -18.8260  0.00  0.00     0.000 C
ATOM     96   S  Z9L D   5       5.351  44.375 -17.3750  0.00  0.00     0.000 S
ATOM     97   O  Z9L D   5       5.095  45.900 -17.6720  0.00  0.00     0.000 O
ATOM     98   O  Z9L D   5       6.367  43.938 -18.2980  0.00  0.00     0.000 OA
ATOM     99   O  Z9L D   5       4.190  43.589 -17.1240  0.00  0.00     0.000 OA
ATOM    100   O  Z9L D   5       6.000  44.935 -16.2150  0.00  0.00     0.000 O
ENDBRANCH 81 95
ENDBRANCH 76 80
ENDBRANCH 60 76
ENDBRANCH 59 63
ENDBRANCH 37 59
ENDBRANCH 36 40
ENDBRANCH 23 36
ENDBRANCH 22 26
ENDBRANCH 1 22
TORSDOF 19
ENDMDL
MODEL 33
REMARK VINA RESULT:      -6.1     29.255     35.470
ROOT
ATOM      1  C1  Z9H D   1      13.320  43.742 -33.3100  0.00  0.00     0.000 C
ATOM      2  C2  Z9H D   1      14.347  44.802 -33.7770  0.00  0.00     0.000 C
ATOM      3  C3  Z9H D   1      13.854  44.956 -35.2480  0.00  0.00     0.000 C
ATOM      4  C4  Z9H D   1      13.670  43.600 -36.0480  0.00  0.00     0.000 C
ATOM      5  C5  Z9H D   1      12.909  42.346 -35.4600  0.00  0.00     0.000 C
ATOM      6  O5  Z9H D   1      13.167  42.494 -34.0410  0.00  0.00     0.000 O
ATOM      7   O  Z9H D   1      14.676  45.861 -35.9870  0.00  0.00     0.000 O
ATOM      8   C  Z9H D   1      14.166  47.200 -36.1040  0.00  0.00     0.000 C
ATOM      9   O  Z9H D   1      13.016  43.956 -37.2710  0.00  0.00     0.000 O
ATOM     10   C  Z9H D   1      13.869  44.086 -38.4120  0.00  0.00     0.000 C
ENDROOT
BRANCH 2 11
ATOM     11   O  Z9H D   1      13.895  45.956 -33.1170  0.00  0.00     0.000 O
ATOM     12   O  Z9H D   1      14.871  46.864 -31.7830  0.00  0.00     0.000 OA
ATOM     13   S  Z9H D   1      15.337  45.721 -32.4930  0.00  0.00     0.000 S
ATOM     14   O  Z9H D   1      16.318  46.022 -33.4970  0.00  0.00     0.000 OA
ATOM     15   O  Z9H D   1      15.362  44.565 -31.6270  0.00  0.00     0.000 O
ENDBRANCH 2 11
BRANCH 5 16
ATOM     16   C  Z9H D   1      13.205  40.902 -36.2520  0.00  0.00     0.000 C
ATOM     17   S  Z9H D   1      13.148  38.901 -36.0690  0.00  0.00     0.000 S
ATOM     18   O  Z9H D   1      12.202  40.134 -35.6330  0.00  0.00     0.000 O
ATOM     19   O  Z9H D   1      14.405  38.833 -35.3810  0.00  0.00     0.000 O
ATOM     20   O  Z9H D   1      13.006  38.642 -37.4600  0.00  0.00     0.000 OA
ATOM     21   O  Z9H D   1      12.121  38.175 -35.3820  0.00  0.00     0.000 OA
ENDBRANCH 5 16
BRANCH 1 22
ATOM     22  O4  GU1 D   2      11.922  44.207 -33.2770  0.00  0.00     0.000 O
BRANCH 22 26
ATOM     23  C1  GU1 D   2       8.343  43.843 -31.2700  0.00  0.00     0.000 C
ATOM     24  C2  GU1 D   2       9.580  43.588 -30.4230  0.00  0.00     0.000 C
ATOM     25  C3  GU1 D   2      10.790  44.115 -31.1380  0.00  0.00     0.000 C
ATOM     26  C4  GU1 D   2      10.875  43.553 -32.5500  0.00  0.00     0.000 C
ATOM     27  C5  GU1 D   2       9.547  43.769 -33.2810  0.00  0.00     0.000 C
ATOM     28  O5  GU1 D   2       8.471  43.205 -32.5360  0.00  0.00     0.000 O
ATOM     29   O  GU1 D   2       9.499  44.230 -29.1560  0.00  0.00     0.000 O
ATOM     30   C  GU1 D   2       9.047  43.381 -28.1100  0.00  0.00     0.000 C
ATOM     31   C  GU1 D   2      12.547  44.730 -29.6120  0.00  0.00     0.000 C
ATOM     32   O  GU1 D   2      11.956  43.710 -30.4140  0.00  0.00     0.000 O
BRANCH 27 33
ATOM     33   C  GU1 D   2       9.560  43.115 -34.6420  0.00  0.00     0.000 C
ATOM     34   O  GU1 D   2       9.473  41.906 -34.7030  0.00  0.00     0.000 OA
ATOM     35   O  GU1 D   2       9.651  43.792 -35.6550  0.00  0.00     0.000 O
ENDBRANCH 27 33
BRANCH 23 36
ATOM     36  O4  GU6 D   3       7.091  43.218 -30.9240  0.00  0.00     0.000 O
BRANCH 36 40
ATOM     37  C1  GU6 D   3       3.309  42.443 -29.5880  0.00  0.00     0.000 C
ATOM     38  C2  GU6 D   3       4.257  41.255 -29.4840  0.00  0.00     0.000 C
ATOM     39  C3  GU6 D   3       5.669  41.713 -29.7390  0.00  0.00     0.000 C
ATOM     40  C4  GU6 D   3       5.863  43.078 -30.2380  0.00  0.00     0.000 C
ATOM     41  C5  GU6 D   3       4.726  43.431 -31.2520  0.00  0.00     0.000 C
ATOM     42  O5  GU6 D   3       3.411  42.991 -30.8930  0.00  0.00     0.000 O
BRANCH 38 43
ATOM     43   O  GU6 D   3       4.166  40.657 -28.2050  0.00  0.00     0.000 O
ATOM     44   S  GU6 D   3       3.285  39.415 -28.1530  0.00  0.00     0.000 S
ATOM     45   O  GU6 D   3       1.879  39.843 -28.0440  0.00  0.00     0.000 OA
ATOM     46   O  GU6 D   3       3.470  38.654 -29.4010  0.00  0.00     0.000 O
ATOM     47   O  GU6 D   3       3.684  38.604 -27.0080  0.00  0.00     0.000 OA
ENDBRANCH 38 43
BRANCH 39 48
ATOM     48   O  GU6 D   3       6.772  40.946 -29.2950  0.00  0.00     0.000 O
ATOM     49   S  GU6 D   3       7.490  39.778 -29.9700  0.00  0.00     0.000 S
ATOM     50   O  GU6 D   3       7.945  40.170 -31.3090  0.00  0.00     0.000 OA
ATOM     51   O  GU6 D   3       8.627  39.524 -29.0760  0.00  0.00     0.000 OA
ATOM     52   O  GU6 D   3       6.557  38.633 -30.0670  0.00  0.00     0.000 O
ENDBRANCH 39 48
BRANCH 41 53
ATOM     53   C  GU6 D   3       4.815  44.184 -32.5520  0.00  0.00     0.000 C
ATOM     54   O  GU6 D   3       4.625  43.094 -33.4170  0.00  0.00     0.000 O
ATOM     55   S  GU6 D   3       4.737  43.278 -34.9370  0.00  0.00     0.000 S
ATOM     56   O  GU6 D   3       6.149  43.620 -35.2230  0.00  0.00     0.000 O
ATOM     57   O  GU6 D   3       4.365  42.015 -35.5900  0.00  0.00     0.000 OA
ATOM     58   O  GU6 D   3       3.833  44.389 -35.3120  0.00  0.00     0.000 OA
ENDBRANCH 41 53
BRANCH 37 59
ATOM     59  O4  Z9K D   4       3.261  43.549 -28.6610  0.00  0.00     0.000 O
BRANCH 59 63
ATOM     60  C1  Z9K D   4       1.421  42.841 -25.2610  0.00  0.00     0.000 C
ATOM     61  C2  Z9K D   4       0.222  42.894 -26.2470  0.00  0.00     0.000 C
ATOM     62  C3  Z9K D   4       0.981  42.995 -27.6400  0.00  0.00     0.000 C
ATOM     63  C4  Z9K D   4       2.186  44.001 -27.7870  0.00  0.00     0.000 C
ATOM     64  C5  Z9K D   4       2.938  44.345 -26.4920  0.00  0.00     0.000 C
ATOM     65  O5  Z9K D   4       2.826  43.121 -25.7190  0.00  0.00     0.000 O
ATOM     66   O  Z9K D   4       0.108  43.301 -28.7430  0.00  0.00     0.000 O
ATOM     67   C  Z9K D   4      -0.521  42.171 -29.3240  0.00  0.00     0.000 C
BRANCH 61 68
ATOM     68   O  Z9K D   4      -0.388  41.632 -26.2210  0.00  0.00     0.000 O
ATOM     69   O  Z9K D   4      -2.105  43.481 -26.6450  0.00  0.00     0.000 OA
ATOM     70   S  Z9K D   4      -1.571  42.586 -25.6630  0.00  0.00     0.000 S
ATOM     71   O  Z9K D   4      -1.302  42.910 -24.2950  0.00  0.00     0.000 OA
ATOM     72   O  Z9K D   4      -2.211  41.312 -25.7320  0.00  0.00     0.000 OA
ENDBRANCH 61 68
BRANCH 64 73
ATOM     73   C  Z9K D   4       4.344  44.899 -26.8050  0.00  0.00     0.000 C
ATOM     74   O  Z9K D   4       4.506  46.087 -27.2090  0.00  0.00     0.000 O
ATOM     75   O  Z9K D   4       5.377  44.199 -26.6660  0.00  0.00     0.000 OA
ENDBRANCH 64 73
BRANCH 60 76
ATOM     76  O4  Z9L D   5       1.575  43.519 -24.0020  0.00  0.00     0.000 O
BRANCH 76 80
ATOM     77  C1  Z9L D   5       2.671  43.019 -20.1910  0.00  0.00     0.000 C
ATOM     78  C2  Z9L D   5       3.677  44.091 -20.8330  0.00  0.00     0.000 C
ATOM     79  C3  Z9L D   5       2.955  44.641 -22.2600  0.00  0.00     0.000 C
ATOM     80  C4  Z9L D   5       2.375  43.230 -22.8840  0.00  0.00     0.000 C
ATOM     81  C5  Z9L D   5       1.556  42.028 -22.1900  0.00  0.00     0.000 C
ATOM     82  O5  Z9L D   5       2.156  41.821 -20.9020  0.00  0.00     0.000 O
ATOM     83   C  Z9L D   5       0.571  42.895 -18.9790  0.00  0.00     0.000 C
ATOM     84   C  Z9L D   5       0.571  42.895 -18.9790  0.00  0.00     0.000 C
BRANCH 78 85
ATOM     85   O  Z9L D   5       3.798  45.155 -19.9440  0.00  0.00     0.000 O
ATOM     86   O  Z9L D   5       5.375  45.566 -18.9180  0.00  0.00     0.000 OA
ATOM     87   S  Z9L D   5       5.287  44.551 -19.9240  0.00  0.00     0.000 S
ATOM     88   O  Z9L D   5       6.120  45.021 -21.0030  0.00  0.00     0.000 OA
ATOM     89   O  Z9L D   5       5.463  43.321 -19.2310  0.00  0.00     0.000 OA
ENDBRANCH 78 85
BRANCH 79 90
ATOM     90   O  Z9L D   5       3.911  45.017 -23.1990  0.00  0.00     0.000 O
ATOM     91   S  Z9L D   5       3.120  46.393 -23.0570  0.00  0.00     0.000 S
ATOM     92   O  Z9L D   5       2.943  47.051 -21.7900  0.00  0.00     0.000 OA
ATOM     93   O  Z9L D   5       2.108  46.470 -24.0810  0.00  0.00     0.000 O
ATOM     94   O  Z9L D   5       4.333  46.887 -23.6240  0.00  0.00     0.000 OA
ENDBRANCH 79 90
BRANCH 81 95
ATOM     95   C  Z9L D   5       1.209  40.687 -23.1350  0.00  0.00     0.000 C
ATOM     96   S  Z9L D   5       1.746  38.817 -23.5650  0.00  0.00     0.000 S
ATOM     97   O  Z9L D   5       2.502  40.146 -23.1890  0.00  0.00     0.000 O
ATOM     98   O  Z9L D   5       1.264  38.981 -24.9120  0.00  0.00     0.000 OA
ATOM     99   O  Z9L D   5       0.919  38.265 -22.5450  0.00  0.00     0.000 OA
ATOM    100   O  Z9L D   5       3.099  38.322 -23.6210  0.00  0.00     0.000 O
ENDBRANCH 81 95
ENDBRANCH 76 80
ENDBRANCH 60 76
ENDBRANCH 59 63
ENDBRANCH 37 59
ENDBRANCH 36 40
ENDBRANCH 23 36
ENDBRANCH 22 26
ENDBRANCH 1 22
TORSDOF 19
ENDMDL
MODEL 34
REMARK VINA RESULT:      -6.1     31.870     39.199
ROOT
ATOM      1  C1  Z9H D   1      -3.541  22.892 -21.6270  0.00  0.00     0.000 C
ATOM      2  C2  Z9H D   1      -4.405  22.834 -22.9100  0.00  0.00     0.000 C
ATOM      3  C3  Z9H D   1      -4.502  21.283 -23.0430  0.00  0.00     0.000 C
ATOM      4  C4  Z9H D   1      -3.122  20.507 -22.9610  0.00  0.00     0.000 C
ATOM      5  C5  Z9H D   1      -2.039  20.785 -21.8440  0.00  0.00     0.000 C
ATOM      6  O5  Z9H D   1      -2.269  22.189 -21.5640  0.00  0.00     0.000 O
ATOM      7   O  Z9H D   1      -5.219  20.900 -24.2180  0.00  0.00     0.000 O
ATOM      8   C  Z9H D   1      -6.601  20.562 -24.0120  0.00  0.00     0.000 C
ATOM      9   O  Z9H D   1      -3.462  19.119 -22.8860  0.00  0.00     0.000 O
ATOM     10   C  Z9H D   1      -3.376  18.394 -24.1170  0.00  0.00     0.000 C
ENDROOT
BRANCH 2 11
ATOM     11   O  Z9H D   1      -5.662  23.239 -22.4330  0.00  0.00     0.000 O
ATOM     12   O  Z9H D   1      -6.546  24.813 -22.9820  0.00  0.00     0.000 OA
ATOM     13   S  Z9H D   1      -5.294  24.365 -23.4920  0.00  0.00     0.000 S
ATOM     14   O  Z9H D   1      -5.374  23.793 -24.8060  0.00  0.00     0.000 OA
ATOM     15   O  Z9H D   1      -4.225  25.214 -23.0190  0.00  0.00     0.000 O
ENDBRANCH 2 11
BRANCH 5 16
ATOM     16   C  Z9H D   1      -0.507  20.204 -22.1820  0.00  0.00     0.000 C
ATOM     17   S  Z9H D   1       0.973  20.206 -23.5420  0.00  0.00     0.000 S
ATOM     18   O  Z9H D   1      -0.048  21.300 -22.9370  0.00  0.00     0.000 O
ATOM     19   O  Z9H D   1       0.361  19.192 -24.3510  0.00  0.00     0.000 O
ATOM     20   O  Z9H D   1       2.013  19.937 -22.6100  0.00  0.00     0.000 OA
ATOM     21   O  Z9H D   1       1.365  21.347 -24.3170  0.00  0.00     0.000 OA
ENDBRANCH 5 16
BRANCH 1 22
ATOM     22  O4  GU1 D   2      -4.196  22.370 -20.4150  0.00  0.00     0.000 O
BRANCH 22 26
ATOM     23  C1  GU1 D   2      -4.776  22.984 -16.3830  0.00  0.00     0.000 C
ATOM     24  C2  GU1 D   2      -4.628  24.253 -17.2090  0.00  0.00     0.000 C
ATOM     25  C3  GU1 D   2      -4.808  23.925 -18.6630  0.00  0.00     0.000 C
ATOM     26  C4  GU1 D   2      -3.880  22.795 -19.0840  0.00  0.00     0.000 C
ATOM     27  C5  GU1 D   2      -4.032  21.607 -18.1290  0.00  0.00     0.000 C
ATOM     28  O5  GU1 D   2      -3.810  22.019 -16.7830  0.00  0.00     0.000 O
ATOM     29   O  GU1 D   2      -5.593  25.236 -16.8520  0.00  0.00     0.000 O
ATOM     30   C  GU1 D   2      -5.112  26.207 -15.9330  0.00  0.00     0.000 C
ATOM     31   C  GU1 D   2      -5.619  25.808 -19.9230  0.00  0.00     0.000 C
ATOM     32   O  GU1 D   2      -4.490  25.089 -19.4320  0.00  0.00     0.000 O
BRANCH 27 33
ATOM     33   C  GU1 D   2      -3.038  20.517 -18.4490  0.00  0.00     0.000 C
ATOM     34   O  GU1 D   2      -1.875  20.688 -18.1450  0.00  0.00     0.000 OA
ATOM     35   O  GU1 D   2      -3.400  19.488 -18.9990  0.00  0.00     0.000 O
ENDBRANCH 27 33
BRANCH 23 36
ATOM     36  O4  GU6 D   3      -4.406  22.984 -14.9900  0.00  0.00     0.000 O
BRANCH 36 40
ATOM     37  C1  GU6 D   3      -4.651  22.995 -10.9120  0.00  0.00     0.000 C
ATOM     38  C2  GU6 D   3      -3.233  23.156 -11.4470  0.00  0.00     0.000 C
ATOM     39  C3  GU6 D   3      -3.280  23.412 -12.9310  0.00  0.00     0.000 C
ATOM     40  C4  GU6 D   3      -4.569  23.244 -13.6110  0.00  0.00     0.000 C
ATOM     41  C5  GU6 D   3      -5.329  22.022 -12.9970  0.00  0.00     0.000 C
ATOM     42  O5  GU6 D   3      -5.261  21.897 -11.5720  0.00  0.00     0.000 O
BRANCH 38 43
ATOM     43   O  GU6 D   3      -2.573  24.223 -10.7940  0.00  0.00     0.000 O
ATOM     44   S  GU6 D   3      -1.782  23.811  -9.5590  0.00  0.00     0.000 S
ATOM     45   O  GU6 D   3      -2.712  23.701  -8.4220  0.00  0.00     0.000 OA
ATOM     46   O  GU6 D   3      -1.161  22.499  -9.8130  0.00  0.00     0.000 O
ATOM     47   O  GU6 D   3      -0.750  24.812  -9.3060  0.00  0.00     0.000 OA
ENDBRANCH 38 43
BRANCH 39 48
ATOM     48   O  GU6 D   3      -2.187  24.013 -13.5990  0.00  0.00     0.000 O
ATOM     49   S  GU6 D   3      -0.867  23.402 -14.0670  0.00  0.00     0.000 S
ATOM     50   O  GU6 D   3      -1.125  22.249 -14.9380  0.00  0.00     0.000 OA
ATOM     51   O  GU6 D   3      -0.238  24.500 -14.8130  0.00  0.00     0.000 OA
ATOM     52   O  GU6 D   3      -0.088  22.978 -12.8830  0.00  0.00     0.000 O
ENDBRANCH 39 48
BRANCH 41 53
ATOM     53   C  GU6 D   3      -6.139  20.963 -13.6940  0.00  0.00     0.000 C
ATOM     54   O  GU6 D   3      -5.095  20.057 -13.9420  0.00  0.00     0.000 O
ATOM     55   S  GU6 D   3      -5.346  18.786 -14.7650  0.00  0.00     0.000 S
ATOM     56   O  GU6 D   3      -5.668  19.225 -16.1420  0.00  0.00     0.000 O
ATOM     57   O  GU6 D   3      -4.122  17.971 -14.7520  0.00  0.00     0.000 OA
ATOM     58   O  GU6 D   3      -6.493  18.084 -14.1480  0.00  0.00     0.000 OA
ENDBRANCH 41 53
BRANCH 37 59
ATOM     59  O4  Z9K D   4      -5.633  24.050 -10.8350  0.00  0.00     0.000 O
BRANCH 59 63
ATOM     60  C1  Z9K D   4      -6.367  25.845  -7.4170  0.00  0.00     0.000 C
ATOM     61  C2  Z9K D   4      -6.876  24.408  -7.1180  0.00  0.00     0.000 C
ATOM     62  C3  Z9K D   4      -6.410  23.643  -8.4320  0.00  0.00     0.000 C
ATOM     63  C4  Z9K D   4      -6.663  24.309  -9.8380  0.00  0.00     0.000 C
ATOM     64  C5  Z9K D   4      -6.756  25.842  -9.8520  0.00  0.00     0.000 C
ATOM     65  O5  Z9K D   4      -5.857  26.229  -8.7790  0.00  0.00     0.000 O
ATOM     66   O  Z9K D   4      -6.961  22.319  -8.5450  0.00  0.00     0.000 O
ATOM     67   C  Z9K D   4      -6.223  21.317  -7.8660  0.00  0.00     0.000 C
BRANCH 61 68
ATOM     68   O  Z9K D   4      -6.093  23.904  -6.0710  0.00  0.00     0.000 O
ATOM     69   O  Z9K D   4      -8.485  23.002  -5.9550  0.00  0.00     0.000 OA
ATOM     70   S  Z9K D   4      -7.565  23.947  -5.3970  0.00  0.00     0.000 S
ATOM     71   O  Z9K D   4      -7.871  25.296  -5.0320  0.00  0.00     0.000 OA
ATOM     72   O  Z9K D   4      -6.776  23.345  -4.3710  0.00  0.00     0.000 OA
ENDBRANCH 61 68
BRANCH 64 73
ATOM     73   C  Z9K D   4      -6.500  26.395 -11.2700  0.00  0.00     0.000 C
ATOM     74   O  Z9K D   4      -7.361  26.269 -12.1880  0.00  0.00     0.000 O
ATOM     75   O  Z9K D   4      -5.437  26.994 -11.5640  0.00  0.00     0.000 OA
ENDBRANCH 64 73
BRANCH 60 76
ATOM     76  O4  Z9L D   5      -7.037  27.097  -7.1890  0.00  0.00     0.000 O
BRANCH 76 80
ATOM     77  C1  Z9L D   5      -6.553  30.850  -5.9040  0.00  0.00     0.000 C
ATOM     78  C2  Z9L D   5      -6.936  30.931  -7.4590  0.00  0.00     0.000 C
ATOM     79  C3  Z9L D   5      -7.581  29.425  -7.8800  0.00  0.00     0.000 C
ATOM     80  C4  Z9L D   5      -6.545  28.409  -7.0990  0.00  0.00     0.000 C
ATOM     81  C5  Z9L D   5      -5.967  28.445  -5.5940  0.00  0.00     0.000 C
ATOM     82  O5  Z9L D   5      -5.662  29.819  -5.3120  0.00  0.00     0.000 O
ATOM     83   C  Z9L D   5      -7.584  30.864  -3.7060  0.00  0.00     0.000 C
ATOM     84   C  Z9L D   5      -7.584  30.864  -3.7060  0.00  0.00     0.000 C
BRANCH 78 85
ATOM     85   O  Z9L D   5      -7.918  31.906  -7.6110  0.00  0.00     0.000 O
ATOM     86   O  Z9L D   5      -7.655  33.620  -8.4510  0.00  0.00     0.000 OA
ATOM     87   S  Z9L D   5      -6.686  32.567  -8.4040  0.00  0.00     0.000 S
ATOM     88   O  Z9L D   5      -6.561  32.113  -9.7660  0.00  0.00     0.000 OA
ATOM     89   O  Z9L D   5      -5.620  33.075  -7.6100  0.00  0.00     0.000 OA
ENDBRANCH 78 85
BRANCH 79 90
ATOM     90   O  Z9L D   5      -7.343  29.129  -9.2190  0.00  0.00     0.000 O
ATOM     91   S  Z9L D   5      -8.934  29.050  -9.2060  0.00  0.00     0.000 S
ATOM     92   O  Z9L D   5      -9.756  30.146  -8.7640  0.00  0.00     0.000 OA
ATOM     93   O  Z9L D   5      -9.343  27.684  -8.9930  0.00  0.00     0.000 O
ATOM     94   O  Z9L D   5      -8.728  29.215 -10.6080  0.00  0.00     0.000 OA
ENDBRANCH 79 90
BRANCH 81 95
ATOM     95   C  Z9L D   5      -4.843  27.274  -5.1740  0.00  0.00     0.000 C
ATOM     96   S  Z9L D   5      -2.916  26.772  -5.2370  0.00  0.00     0.000 S
ATOM     97   O  Z9L D   5      -3.917  27.516  -6.1990  0.00  0.00     0.000 O
ATOM     98   O  Z9L D   5      -3.273  25.377  -5.2650  0.00  0.00     0.000 OA
ATOM     99   O  Z9L D   5      -2.625  27.438  -4.0120  0.00  0.00     0.000 OA
ATOM    100   O  Z9L D   5      -2.013  27.034  -6.3300  0.00  0.00     0.000 O
ENDBRANCH 81 95
ENDBRANCH 76 80
ENDBRANCH 60 76
ENDBRANCH 59 63
ENDBRANCH 37 59
ENDBRANCH 36 40
ENDBRANCH 23 36
ENDBRANCH 22 26
ENDBRANCH 1 22
TORSDOF 19
ENDMDL
MODEL 35
REMARK VINA RESULT:      -6.0     33.201     38.726
ROOT
ATOM      1  C1  Z9H D   1      -6.377  35.850 -24.2370  0.00  0.00     0.000 C
ATOM      2  C2  Z9H D   1      -7.873  35.472 -24.1320  0.00  0.00     0.000 C
ATOM      3  C3  Z9H D   1      -8.093  35.852 -22.6360  0.00  0.00     0.000 C
ATOM      4  C4  Z9H D   1      -7.034  35.254 -21.6200  0.00  0.00     0.000 C
ATOM      5  C5  Z9H D   1      -5.474  35.316 -21.8630  0.00  0.00     0.000 C
ATOM      6  O5  Z9H D   1      -5.407  35.287 -23.3110  0.00  0.00     0.000 O
ATOM      7   O  Z9H D   1      -9.422  35.548 -22.2050  0.00  0.00     0.000 O
ATOM      8   C  Z9H D   1     -10.337  36.656 -22.2010  0.00  0.00     0.000 C
ATOM      9   O  Z9H D   1      -7.293  35.896 -20.3670  0.00  0.00     0.000 O
ATOM     10   C  Z9H D   1      -8.068  35.138 -19.4330  0.00  0.00     0.000 C
ENDROOT
BRANCH 2 11
ATOM     11   O  Z9H D   1      -8.487  36.500 -24.8650  0.00  0.00     0.000 O
ATOM     12   O  Z9H D   1      -9.334  36.252 -26.5320  0.00  0.00     0.000 OA
ATOM     13   S  Z9H D   1      -8.750  35.211 -25.7550  0.00  0.00     0.000 S
ATOM     14   O  Z9H D   1      -9.708  34.384 -25.0800  0.00  0.00     0.000 OA
ATOM     15   O  Z9H D   1      -7.536  34.737 -26.3800  0.00  0.00     0.000 O
ENDBRANCH 2 11
BRANCH 5 16
ATOM     16   C  Z9H D   1      -4.569  34.263 -20.9280  0.00  0.00     0.000 C
ATOM     17   S  Z9H D   1      -4.193  32.323 -20.5590  0.00  0.00     0.000 S
ATOM     18   O  Z9H D   1      -4.444  33.227 -21.8730  0.00  0.00     0.000 O
ATOM     19   O  Z9H D   1      -5.339  32.165 -19.7090  0.00  0.00     0.000 O
ATOM     20   O  Z9H D   1      -2.878  32.533 -20.0630  0.00  0.00     0.000 OA
ATOM     21   O  Z9H D   1      -4.125  31.302 -21.5620  0.00  0.00     0.000 OA
ENDBRANCH 5 16
BRANCH 1 22
ATOM     22  O4  GU1 D   2      -6.089  37.287 -24.0850  0.00  0.00     0.000 O
BRANCH 22 26
ATOM     23  C1  GU1 D   2      -3.553  40.345 -25.1760  0.00  0.00     0.000 C
ATOM     24  C2  GU1 D   2      -3.781  39.289 -26.2480  0.00  0.00     0.000 C
ATOM     25  C3  GU1 D   2      -4.984  38.467 -25.8880  0.00  0.00     0.000 C
ATOM     26  C4  GU1 D   2      -4.859  37.908 -24.4780  0.00  0.00     0.000 C
ATOM     27  C5  GU1 D   2      -4.528  39.034 -23.4950  0.00  0.00     0.000 C
ATOM     28  O5  GU1 D   2      -3.355  39.728 -23.9090  0.00  0.00     0.000 O
ATOM     29   O  GU1 D   2      -4.005  39.870 -27.5270  0.00  0.00     0.000 O
ATOM     30   C  GU1 D   2      -2.843  39.931 -28.3420  0.00  0.00     0.000 C
ATOM     31   C  GU1 D   2      -6.056  37.534 -27.8310  0.00  0.00     0.000 C
ATOM     32   O  GU1 D   2      -5.077  37.374 -26.8080  0.00  0.00     0.000 O
BRANCH 27 33
ATOM     33   C  GU1 D   2      -4.279  38.492 -22.1070  0.00  0.00     0.000 C
ATOM     34   O  GU1 D   2      -3.287  37.818 -21.9200  0.00  0.00     0.000 OA
ATOM     35   O  GU1 D   2      -5.057  38.732 -21.1980  0.00  0.00     0.000 O
ENDBRANCH 27 33
BRANCH 23 36
ATOM     36  O4  GU6 D   3      -2.326  41.100 -25.1580  0.00  0.00     0.000 O
BRANCH 36 40
ATOM     37  C1  GU6 D   3       0.738  43.683 -24.3580  0.00  0.00     0.000 C
ATOM     38  C2  GU6 D   3      -0.446  44.328 -25.0670  0.00  0.00     0.000 C
ATOM     39  C3  GU6 D   3      -1.613  43.376 -25.0700  0.00  0.00     0.000 C
ATOM     40  C4  GU6 D   3      -1.369  41.997 -24.6320  0.00  0.00     0.000 C
ATOM     41  C5  GU6 D   3       0.034  41.528 -25.1410  0.00  0.00     0.000 C
ATOM     42  O5  GU6 D   3       1.087  42.494 -25.0510  0.00  0.00     0.000 O
BRANCH 38 43
ATOM     43   O  GU6 D   3      -0.811  45.536 -24.4270  0.00  0.00     0.000 O
ATOM     44   S  GU6 D   3      -0.109  46.773 -24.9720  0.00  0.00     0.000 S
ATOM     45   O  GU6 D   3       1.228  46.861 -24.3600  0.00  0.00     0.000 OA
ATOM     46   O  GU6 D   3       0.029  46.631 -26.4330  0.00  0.00     0.000 O
ATOM     47   O  GU6 D   3      -0.915  47.948 -24.6580  0.00  0.00     0.000 OA
ENDBRANCH 38 43
BRANCH 39 48
ATOM     48   O  GU6 D   3      -2.934  43.846 -25.2610  0.00  0.00     0.000 O
ATOM     49   S  GU6 D   3      -3.642  44.287 -26.5420  0.00  0.00     0.000 S
ATOM     50   O  GU6 D   3      -3.577  43.221 -27.5480  0.00  0.00     0.000 OA
ATOM     51   O  GU6 D   3      -5.023  44.515 -26.0970  0.00  0.00     0.000 OA
ATOM     52   O  GU6 D   3      -2.985  45.510 -27.0560  0.00  0.00     0.000 O
ENDBRANCH 39 48
BRANCH 41 53
ATOM     53   C  GU6 D   3       0.439  40.191 -25.7020  0.00  0.00     0.000 C
ATOM     54   O  GU6 D   3       1.698  40.100 -25.0860  0.00  0.00     0.000 O
ATOM     55   S  GU6 D   3       2.639  38.932 -25.4100  0.00  0.00     0.000 S
ATOM     56   O  GU6 D   3       3.033  39.082 -26.8300  0.00  0.00     0.000 O
ATOM     57   O  GU6 D   3       3.815  39.022 -24.5320  0.00  0.00     0.000 OA
ATOM     58   O  GU6 D   3       1.877  37.681 -25.1980  0.00  0.00     0.000 OA
ENDBRANCH 41 53
BRANCH 37 59
ATOM     59  O4  Z9K D   4       0.799  43.390 -22.9460  0.00  0.00     0.000 O
BRANCH 59 63
ATOM     60  C1  Z9K D   4       3.363  43.905 -20.0120  0.00  0.00     0.000 C
ATOM     61  C2  Z9K D   4       4.291  43.353 -21.1290  0.00  0.00     0.000 C
ATOM     62  C3  Z9K D   4       3.290  43.321 -22.3640  0.00  0.00     0.000 C
ATOM     63  C4  Z9K D   4       1.840  42.737 -22.1630  0.00  0.00     0.000 C
ATOM     64  C5  Z9K D   4       1.275  42.813 -20.7360  0.00  0.00     0.000 C
ATOM     65  O5  Z9K D   4       1.878  44.026 -20.2150  0.00  0.00     0.000 O
ATOM     66   O  Z9K D   4       3.816  42.619 -23.5050  0.00  0.00     0.000 O
ATOM     67   C  Z9K D   4       4.626  43.412 -24.3580  0.00  0.00     0.000 C
BRANCH 61 68
ATOM     68   O  Z9K D   4       5.233  44.351 -21.4120  0.00  0.00     0.000 O
ATOM     69   O  Z9K D   4       6.271  42.019 -21.6000  0.00  0.00     0.000 OA
ATOM     70   S  Z9K D   4       6.161  43.186 -20.7760  0.00  0.00     0.000 S
ATOM     71   O  Z9K D   4       6.009  43.193 -19.3530  0.00  0.00     0.000 OA
ATOM     72   O  Z9K D   4       7.122  44.170 -21.1560  0.00  0.00     0.000 OA
ENDBRANCH 61 68
BRANCH 64 73
ATOM     73   C  Z9K D   4      -0.264  42.695 -20.7490  0.00  0.00     0.000 C
ATOM     74   O  Z9K D   4      -0.998  43.657 -20.3770  0.00  0.00     0.000 O
ATOM     75   O  Z9K D   4      -0.845  41.650 -21.1320  0.00  0.00     0.000 OA
ENDBRANCH 64 73
BRANCH 60 76
ATOM     76  O4  Z9L D   5       3.257  43.474 -18.6440  0.00  0.00     0.000 O
BRANCH 76 80
ATOM     77  C1  Z9L D   5       3.110  44.868 -14.9020  0.00  0.00     0.000 C
ATOM     78  C2  Z9L D   5       1.795  43.977 -15.1230  0.00  0.00     0.000 C
ATOM     79  C3  Z9L D   5       2.074  43.033 -16.4990  0.00  0.00     0.000 C
ATOM     80  C4  Z9L D   5       2.785  44.134 -17.4980  0.00  0.00     0.000 C
ATOM     81  C5  Z9L D   5       3.959  45.204 -17.2220  0.00  0.00     0.000 C
ATOM     82  O5  Z9L D   5       3.697  45.767 -15.9280  0.00  0.00     0.000 O
ATOM     83   C  Z9L D   5       5.397  44.688 -14.1090  0.00  0.00     0.000 C
ATOM     84   C  Z9L D   5       5.397  44.688 -14.1090  0.00  0.00     0.000 C
BRANCH 78 85
ATOM     85   O  Z9L D   5       1.649  43.142 -14.0190  0.00  0.00     0.000 O
ATOM     86   O  Z9L D   5       0.264  43.298 -12.6890  0.00  0.00     0.000 OA
ATOM     87   S  Z9L D   5       0.345  44.073 -13.8890  0.00  0.00     0.000 S
ATOM     88   O  Z9L D   5      -0.766  43.632 -14.6950  0.00  0.00     0.000 OA
ATOM     89   O  Z9L D   5       0.563  45.411 -13.4580  0.00  0.00     0.000 OA
ENDBRANCH 78 85
BRANCH 79 90
ATOM     90   O  Z9L D   5       0.886  42.743 -17.1640  0.00  0.00     0.000 O
ATOM     91   S  Z9L D   5       1.404  41.263 -16.8860  0.00  0.00     0.000 S
ATOM     92   O  Z9L D   5       1.714  40.791 -15.5620  0.00  0.00     0.000 OA
ATOM     93   O  Z9L D   5       2.141  40.792 -18.0320  0.00  0.00     0.000 O
ATOM     94   O  Z9L D   5       0.026  40.979 -17.1240  0.00  0.00     0.000 OA
ENDBRANCH 79 90
BRANCH 81 95
ATOM     95   C  Z9L D   5       4.366  46.239 -18.4770  0.00  0.00     0.000 C
ATOM     96   S  Z9L D   5       3.959  47.989 -19.3380  0.00  0.00     0.000 S
ATOM     97   O  Z9L D   5       3.119  46.863 -18.6270  0.00  0.00     0.000 O
ATOM     98   O  Z9L D   5       4.361  47.461 -20.6170  0.00  0.00     0.000 OA
ATOM     99   O  Z9L D   5       4.875  48.696 -18.5080  0.00  0.00     0.000 OA
ATOM    100   O  Z9L D   5       2.649  48.574 -19.4780  0.00  0.00     0.000 O
ENDBRANCH 81 95
ENDBRANCH 76 80
ENDBRANCH 60 76
ENDBRANCH 59 63
ENDBRANCH 37 59
ENDBRANCH 36 40
ENDBRANCH 23 36
ENDBRANCH 22 26
ENDBRANCH 1 22
TORSDOF 19
ENDMDL
MODEL 36
REMARK VINA RESULT:      -6.0     29.698     35.608
ROOT
ATOM      1  C1  Z9H D   1      12.182  43.639 -33.1080  0.00  0.00     0.000 C
ATOM      2  C2  Z9H D   1      13.038  44.248 -34.2440  0.00  0.00     0.000 C
ATOM      3  C3  Z9H D   1      11.991  44.140 -35.3940  0.00  0.00     0.000 C
ATOM      4  C4  Z9H D   1      11.315  42.717 -35.5650  0.00  0.00     0.000 C
ATOM      5  C5  Z9H D   1      10.723  41.890 -34.3550  0.00  0.00     0.000 C
ATOM      6  O5  Z9H D   1      11.575  42.327 -33.2660  0.00  0.00     0.000 O
ATOM      7   O  Z9H D   1      12.530  44.587 -36.6400  0.00  0.00     0.000 O
ATOM      8   C  Z9H D   1      12.193  45.935 -37.0080  0.00  0.00     0.000 C
ATOM      9   O  Z9H D   1      10.254  42.902 -36.5090  0.00  0.00     0.000 O
ATOM     10   C  Z9H D   1      10.551  42.515 -37.8540  0.00  0.00     0.000 C
ENDROOT
BRANCH 2 11
ATOM     11   O  Z9H D   1      13.060  45.608 -33.8960  0.00  0.00     0.000 O
ATOM     12   O  Z9H D   1      14.613  46.543 -33.3740  0.00  0.00     0.000 OA
ATOM     13   S  Z9H D   1      14.585  45.177 -33.7750  0.00  0.00     0.000 S
ATOM     14   O  Z9H D   1      15.095  44.950 -35.0970  0.00  0.00     0.000 OA
ATOM     15   O  Z9H D   1      14.807  44.313 -32.6390  0.00  0.00     0.000 O
ENDBRANCH 2 11
BRANCH 5 16
ATOM     16   C  Z9H D   1      10.468  40.266 -34.6640  0.00  0.00     0.000 C
ATOM     17   S  Z9H D   1      11.267  38.621 -35.4990  0.00  0.00     0.000 S
ATOM     18   O  Z9H D   1      11.810  39.845 -34.5970  0.00  0.00     0.000 O
ATOM     19   O  Z9H D   1      10.863  38.983 -36.8270  0.00  0.00     0.000 O
ATOM     20   O  Z9H D   1      10.549  37.697 -34.6910  0.00  0.00     0.000 OA
ATOM     21   O  Z9H D   1      12.655  38.268 -35.4370  0.00  0.00     0.000 OA
ENDBRANCH 5 16
BRANCH 1 22
ATOM     22  O4  GU1 D   2      11.002  44.435 -32.7270  0.00  0.00     0.000 O
BRANCH 22 26
ATOM     23  C1  GU1 D   2       8.586  45.740 -29.6560  0.00  0.00     0.000 C
ATOM     24  C2  GU1 D   2      10.075  45.968 -29.4400  0.00  0.00     0.000 C
ATOM     25  C3  GU1 D   2      10.796  45.815 -30.7480  0.00  0.00     0.000 C
ATOM     26  C4  GU1 D   2      10.458  44.484 -31.4030  0.00  0.00     0.000 C
ATOM     27  C5  GU1 D   2       8.938  44.307 -31.4780  0.00  0.00     0.000 C
ATOM     28  O5  GU1 D   2       8.357  44.438 -30.1840  0.00  0.00     0.000 O
ATOM     29   O  GU1 D   2      10.345  47.269 -28.9330  0.00  0.00     0.000 O
ATOM     30   C  GU1 D   2      10.499  47.315 -27.5210  0.00  0.00     0.000 C
ATOM     31   C  GU1 D   2      12.833  47.095 -30.8130  0.00  0.00     0.000 C
ATOM     32   O  GU1 D   2      12.204  45.856 -30.4950  0.00  0.00     0.000 O
BRANCH 27 33
ATOM     33   C  GU1 D   2       8.572  42.943 -32.0140  0.00  0.00     0.000 C
ATOM     34   O  GU1 D   2       8.941  41.963 -31.3990  0.00  0.00     0.000 OA
ATOM     35   O  GU1 D   2       7.918  42.834 -33.0380  0.00  0.00     0.000 O
ENDBRANCH 27 33
BRANCH 23 36
ATOM     36  O4  GU6 D   3       7.708  45.588 -28.5230  0.00  0.00     0.000 O
BRANCH 36 40
ATOM     37  C1  GU6 D   3       5.421  44.070 -25.4970  0.00  0.00     0.000 C
ATOM     38  C2  GU6 D   3       4.961  45.435 -25.9950  0.00  0.00     0.000 C
ATOM     39  C3  GU6 D   3       5.687  45.777 -27.2700  0.00  0.00     0.000 C
ATOM     40  C4  GU6 D   3       6.803  44.915 -27.6710  0.00  0.00     0.000 C
ATOM     41  C5  GU6 D   3       7.605  44.473 -26.4030  0.00  0.00     0.000 C
ATOM     42  O5  GU6 D   3       6.819  44.123 -25.2580  0.00  0.00     0.000 O
BRANCH 38 43
ATOM     43   O  GU6 D   3       3.564  45.439 -26.2180  0.00  0.00     0.000 O
ATOM     44   S  GU6 D   3       2.745  45.997 -25.0620  0.00  0.00     0.000 S
ATOM     45   O  GU6 D   3       2.573  44.936 -24.0540  0.00  0.00     0.000 OA
ATOM     46   O  GU6 D   3       3.481  47.126 -24.4640  0.00  0.00     0.000 O
ATOM     47   O  GU6 D   3       1.458  46.454 -25.5760  0.00  0.00     0.000 OA
ENDBRANCH 38 43
BRANCH 39 48
ATOM     48   O  GU6 D   3       5.169  46.745 -28.1630  0.00  0.00     0.000 O
ATOM     49   S  GU6 D   3       5.318  48.266 -28.1550  0.00  0.00     0.000 S
ATOM     50   O  GU6 D   3       6.738  48.635 -28.1380  0.00  0.00     0.000 OA
ATOM     51   O  GU6 D   3       4.678  48.669 -29.4140  0.00  0.00     0.000 OA
ATOM     52   O  GU6 D   3       4.640  48.808 -26.9560  0.00  0.00     0.000 O
ENDBRANCH 39 48
BRANCH 41 53
ATOM     53   C  GU6 D   3       9.093  44.348 -26.2180  0.00  0.00     0.000 C
ATOM     54   O  GU6 D   3       9.273  43.147 -26.9220  0.00  0.00     0.000 O
ATOM     55   S  GU6 D   3      10.648  42.466 -26.9620  0.00  0.00     0.000 S
ATOM     56   O  GU6 D   3      10.948  42.028 -25.5790  0.00  0.00     0.000 O
ATOM     57   O  GU6 D   3      10.573  41.312 -27.8690  0.00  0.00     0.000 OA
ATOM     58   O  GU6 D   3      11.625  43.478 -27.4230  0.00  0.00     0.000 OA
ENDBRANCH 41 53
BRANCH 37 59
ATOM     59  O4  Z9K D   4       5.144  42.813 -26.1500  0.00  0.00     0.000 O
BRANCH 59 63
ATOM     60  C1  Z9K D   4       1.808  41.480 -24.5550  0.00  0.00     0.000 C
ATOM     61  C2  Z9K D   4       2.863  40.920 -23.5600  0.00  0.00     0.000 C
ATOM     62  C3  Z9K D   4       4.187  41.613 -24.1030  0.00  0.00     0.000 C
ATOM     63  C4  Z9K D   4       4.470  41.620 -25.6540  0.00  0.00     0.000 C
ATOM     64  C5  Z9K D   4       3.236  41.537 -26.5650  0.00  0.00     0.000 C
ATOM     65  O5  Z9K D   4       2.218  42.228 -25.7940  0.00  0.00     0.000 O
ATOM     66   O  Z9K D   4       5.388  41.087 -23.5110  0.00  0.00     0.000 O
ATOM     67   C  Z9K D   4       5.744  41.687 -22.2760  0.00  0.00     0.000 C
BRANCH 61 68
ATOM     68   O  Z9K D   4       2.598  41.500 -22.3120  0.00  0.00     0.000 O
ATOM     69   O  Z9K D   4       3.646  39.179 -22.0530  0.00  0.00     0.000 OA
ATOM     70   S  Z9K D   4       2.422  39.922 -21.9930  0.00  0.00     0.000 S
ATOM     71   O  Z9K D   4       1.154  39.484 -22.4890  0.00  0.00     0.000 OA
ATOM     72   O  Z9K D   4       2.250  40.516 -20.7070  0.00  0.00     0.000 OA
ENDBRANCH 61 68
BRANCH 64 73
ATOM     73   C  Z9K D   4       3.566  42.046 -27.9840  0.00  0.00     0.000 C
ATOM     74   O  Z9K D   4       4.317  41.387 -28.7590  0.00  0.00     0.000 O
ATOM     75   O  Z9K D   4       3.099  43.125 -28.4250  0.00  0.00     0.000 OA
ENDBRANCH 64 73
BRANCH 60 76
ATOM     76  O4  Z9L D   5       0.725  40.784 -25.1960  0.00  0.00     0.000 O
BRANCH 76 80
ATOM     77  C1  Z9L D   5      -3.166  40.846 -26.1040  0.00  0.00     0.000 C
ATOM     78  C2  Z9L D   5      -2.361  41.079 -27.4720  0.00  0.00     0.000 C
ATOM     79  C3  Z9L D   5      -0.764  40.601 -27.1820  0.00  0.00     0.000 C
ATOM     80  C4  Z9L D   5      -0.510  41.239 -25.6850  0.00  0.00     0.000 C
ATOM     81  C5  Z9L D   5      -1.424  41.209 -24.3570  0.00  0.00     0.000 C
ATOM     82  O5  Z9L D   5      -2.776  41.421 -24.7920  0.00  0.00     0.000 O
ATOM     83   C  Z9L D   5      -4.119  39.063 -24.7600  0.00  0.00     0.000 C
ATOM     84   C  Z9L D   5      -4.119  39.063 -24.7600  0.00  0.00     0.000 C
BRANCH 78 85
ATOM     85   O  Z9L D   5      -2.914  40.253 -28.4450  0.00  0.00     0.000 O
ATOM     86   O  Z9L D   5      -3.943  40.859 -29.9570  0.00  0.00     0.000 OA
ATOM     87   S  Z9L D   5      -3.267  41.709 -29.0250  0.00  0.00     0.000 S
ATOM     88   O  Z9L D   5      -2.195  42.311 -29.7770  0.00  0.00     0.000 OA
ATOM     89   O  Z9L D   5      -4.299  42.425 -28.3550  0.00  0.00     0.000 OA
ENDBRANCH 78 85
BRANCH 79 90
ATOM     90   O  Z9L D   5       0.131  41.318 -27.9720  0.00  0.00     0.000 O
ATOM     91   S  Z9L D   5       0.363  39.858 -28.5640  0.00  0.00     0.000 S
ATOM     92   O  Z9L D   5      -0.712  39.062 -29.0960  0.00  0.00     0.000 OA
ATOM     93   O  Z9L D   5       1.478  39.241 -27.8900  0.00  0.00     0.000 O
ATOM     94   O  Z9L D   5       0.894  40.626 -29.6430  0.00  0.00     0.000 OA
ENDBRANCH 79 90
BRANCH 81 95
ATOM     95   C  Z9L D   5      -0.871  42.061 -23.0220  0.00  0.00     0.000 C
ATOM     96   S  Z9L D   5      -0.992  43.783 -22.0280  0.00  0.00     0.000 S
ATOM     97   O  Z9L D   5      -1.017  43.355 -23.5430  0.00  0.00     0.000 O
ATOM     98   O  Z9L D   5       0.366  43.624 -21.5740  0.00  0.00     0.000 OA
ATOM     99   O  Z9L D   5      -2.093  43.338 -21.2410  0.00  0.00     0.000 OA
ATOM    100   O  Z9L D   5      -1.125  45.090 -22.6220  0.00  0.00     0.000 O
ENDBRANCH 81 95
ENDBRANCH 76 80
ENDBRANCH 60 76
ENDBRANCH 59 63
ENDBRANCH 37 59
ENDBRANCH 36 40
ENDBRANCH 23 36
ENDBRANCH 22 26
ENDBRANCH 1 22
TORSDOF 19
ENDMDL
MODEL 37
REMARK VINA RESULT:      -6.0     30.161     36.091
ROOT
ATOM      1  C1  Z9H D   1       6.725  44.263 -24.1870  0.00  0.00     0.000 C
ATOM      2  C2  Z9H D   1       5.866  44.077 -22.9140  0.00  0.00     0.000 C
ATOM      3  C3  Z9H D   1       4.687  45.021 -23.3020  0.00  0.00     0.000 C
ATOM      4  C4  Z9H D   1       5.108  46.469 -23.7890  0.00  0.00     0.000 C
ATOM      5  C5  Z9H D   1       6.244  46.725 -24.8580  0.00  0.00     0.000 C
ATOM      6  O5  Z9H D   1       7.121  45.594 -24.6210  0.00  0.00     0.000 O
ATOM      7   O  Z9H D   1       3.719  45.111 -22.2550  0.00  0.00     0.000 O
ATOM      8   C  Z9H D   1       2.563  44.271 -22.4110  0.00  0.00     0.000 C
ATOM      9   O  Z9H D   1       3.912  47.073 -24.2910  0.00  0.00     0.000 O
ATOM     10   C  Z9H D   1       3.249  47.969 -23.3940  0.00  0.00     0.000 C
ENDROOT
BRANCH 2 11
ATOM     11   O  Z9H D   1       5.366  42.777 -23.0870  0.00  0.00     0.000 O
ATOM     12   O  Z9H D   1       5.774  41.325 -21.9540  0.00  0.00     0.000 OA
ATOM     13   S  Z9H D   1       6.235  42.659 -21.7630  0.00  0.00     0.000 S
ATOM     14   O  Z9H D   1       5.556  43.363 -20.7130  0.00  0.00     0.000 OA
ATOM     15   O  Z9H D   1       7.650  42.747 -22.0430  0.00  0.00     0.000 O
ENDBRANCH 2 11
BRANCH 5 16
ATOM     16   C  Z9H D   1       6.835  48.290 -24.9030  0.00  0.00     0.000 C
ATOM     17   S  Z9H D   1       7.828  49.625 -26.0310  0.00  0.00     0.000 S
ATOM     18   O  Z9H D   1       6.688  48.511 -26.2850  0.00  0.00     0.000 O
ATOM     19   O  Z9H D   1       9.118  49.099 -25.6870  0.00  0.00     0.000 O
ATOM     20   O  Z9H D   1       7.263  50.772 -25.4110  0.00  0.00     0.000 OA
ATOM     21   O  Z9H D   1       7.669  49.771 -27.4480  0.00  0.00     0.000 OA
ENDBRANCH 5 16
BRANCH 1 22
ATOM     22  O4  GU1 D   2       6.116  43.748 -25.4260  0.00  0.00     0.000 O
BRANCH 22 26
ATOM     23  C1  GU1 D   2       7.529  41.955 -28.8560  0.00  0.00     0.000 C
ATOM     24  C2  GU1 D   2       8.606  42.433 -27.8940  0.00  0.00     0.000 C
ATOM     25  C3  GU1 D   2       7.989  42.704 -26.5520  0.00  0.00     0.000 C
ATOM     26  C4  GU1 D   2       6.803  43.649 -26.6790  0.00  0.00     0.000 C
ATOM     27  C5  GU1 D   2       5.832  43.131 -27.7450  0.00  0.00     0.000 C
ATOM     28  O5  GU1 D   2       6.508  42.939 -28.9840  0.00  0.00     0.000 O
ATOM     29   O  GU1 D   2       9.634  41.465 -27.7230  0.00  0.00     0.000 O
ATOM     30   C  GU1 D   2      10.773  41.686 -28.5420  0.00  0.00     0.000 C
ATOM     31   C  GU1 D   2       9.575  42.449 -24.7590  0.00  0.00     0.000 C
ATOM     32   O  GU1 D   2       8.976  43.318 -25.7170  0.00  0.00     0.000 O
BRANCH 27 33
ATOM     33   C  GU1 D   2       4.706  44.110 -27.9790  0.00  0.00     0.000 C
ATOM     34   O  GU1 D   2       4.984  45.275 -28.1730  0.00  0.00     0.000 OA
ATOM     35   O  GU1 D   2       3.545  43.731 -27.9770  0.00  0.00     0.000 O
ENDBRANCH 27 33
BRANCH 23 36
ATOM     36  O4  GU6 D   3       7.812  41.863 -30.2660  0.00  0.00     0.000 O
BRANCH 36 40
ATOM     37  C1  GU6 D   3       7.702  41.723 -34.3480  0.00  0.00     0.000 C
ATOM     38  C2  GU6 D   3       7.791  40.354 -33.6840  0.00  0.00     0.000 C
ATOM     39  C3  GU6 D   3       7.552  40.494 -32.2040  0.00  0.00     0.000 C
ATOM     40  C4  GU6 D   3       7.508  41.851 -31.6460  0.00  0.00     0.000 C
ATOM     41  C5  GU6 D   3       8.574  42.745 -32.3610  0.00  0.00     0.000 C
ATOM     42  O5  GU6 D   3       8.689  42.567 -33.7780  0.00  0.00     0.000 O
BRANCH 38 43
ATOM     43   O  GU6 D   3       6.843  39.467 -34.2450  0.00  0.00     0.000 O
ATOM     44   S  GU6 D   3       7.449  38.252 -34.9350  0.00  0.00     0.000 S
ATOM     45   O  GU6 D   3       7.871  38.645 -36.2900  0.00  0.00     0.000 OA
ATOM     46   O  GU6 D   3       8.626  37.811 -34.1640  0.00  0.00     0.000 O
ATOM     47   O  GU6 D   3       6.451  37.188 -34.9760  0.00  0.00     0.000 OA
ENDBRANCH 38 43
BRANCH 39 48
ATOM     48   O  GU6 D   3       7.155  39.383 -31.4240  0.00  0.00     0.000 O
ATOM     49   S  GU6 D   3       5.759  38.946 -30.9790  0.00  0.00     0.000 S
ATOM     50   O  GU6 D   3       4.881  38.795 -32.1450  0.00  0.00     0.000 OA
ATOM     51   O  GU6 D   3       6.007  37.651 -30.3300  0.00  0.00     0.000 OA
ATOM     52   O  GU6 D   3       5.208  39.965 -30.0580  0.00  0.00     0.000 O
ENDBRANCH 39 48
BRANCH 41 53
ATOM     53   C  GU6 D   3       9.491  43.782 -31.7700  0.00  0.00     0.000 C
ATOM     54   O  GU6 D   3      10.663  43.407 -32.4450  0.00  0.00     0.000 O
ATOM     55   S  GU6 D   3      11.999  44.092 -32.1250  0.00  0.00     0.000 S
ATOM     56   O  GU6 D   3      12.346  43.721 -30.7330  0.00  0.00     0.000 O
ATOM     57   O  GU6 D   3      13.016  43.598 -33.0640  0.00  0.00     0.000 OA
ATOM     58   O  GU6 D   3      11.784  45.551 -32.2490  0.00  0.00     0.000 OA
ENDBRANCH 41 53
BRANCH 37 59
ATOM     59  O4  Z9K D   4       6.494  42.502 -34.4800  0.00  0.00     0.000 O
BRANCH 59 63
ATOM     60  C1  Z9K D   4       3.659  41.952 -37.1460  0.00  0.00     0.000 C
ATOM     61  C2  Z9K D   4       4.890  42.201 -38.0620  0.00  0.00     0.000 C
ATOM     62  C3  Z9K D   4       6.062  42.239 -36.9880  0.00  0.00     0.000 C
ATOM     63  C4  Z9K D   4       5.864  43.072 -35.6650  0.00  0.00     0.000 C
ATOM     64  C5  Z9K D   4       4.412  43.268 -35.2020  0.00  0.00     0.000 C
ATOM     65  O5  Z9K D   4       3.764  42.049 -35.6490  0.00  0.00     0.000 O
ATOM     66   O  Z9K D   4       7.314  42.697 -37.5290  0.00  0.00     0.000 O
ATOM     67   C  Z9K D   4       8.094  41.683 -38.1420  0.00  0.00     0.000 C
BRANCH 61 68
ATOM     68   O  Z9K D   4       5.084  41.036 -38.8160  0.00  0.00     0.000 O
ATOM     69   O  Z9K D   4       5.873  43.108 -40.0940  0.00  0.00     0.000 OA
ATOM     70   S  Z9K D   4       4.823  42.142 -39.9700  0.00  0.00     0.000 S
ATOM     71   O  Z9K D   4       3.421  42.417 -40.0440  0.00  0.00     0.000 OA
ATOM     72   O  Z9K D   4       5.118  40.969 -40.7290  0.00  0.00     0.000 OA
ENDBRANCH 61 68
BRANCH 64 73
ATOM     73   C  Z9K D   4       4.358  43.631 -33.7030  0.00  0.00     0.000 C
ATOM     74   O  Z9K D   4       4.109  42.754 -32.8250  0.00  0.00     0.000 O
ATOM     75   O  Z9K D   4       4.564  44.801 -33.2980  0.00  0.00     0.000 OA
ENDBRANCH 64 73
BRANCH 60 76
ATOM     76  O4  Z9L D   5       2.359  42.562 -37.2100  0.00  0.00     0.000 O
BRANCH 76 80
ATOM     77  C1  Z9L D   5      -1.585  41.929 -37.3110  0.00  0.00     0.000 C
ATOM     78  C2  Z9L D   5      -1.247  42.556 -35.8740  0.00  0.00     0.000 C
ATOM     79  C3  Z9L D   5       0.295  43.239 -35.9930  0.00  0.00     0.000 C
ATOM     80  C4  Z9L D   5       1.089  42.080 -36.8540  0.00  0.00     0.000 C
ATOM     81  C5  Z9L D   5       0.658  41.271 -38.1800  0.00  0.00     0.000 C
ATOM     82  O5  Z9L D   5      -0.730  40.942 -38.0190  0.00  0.00     0.000 O
ATOM     83   C  Z9L D   5      -2.238  42.598 -39.5510  0.00  0.00     0.000 C
ATOM     84   C  Z9L D   5      -2.238  42.598 -39.5510  0.00  0.00     0.000 C
BRANCH 78 85
ATOM     85   O  Z9L D   5      -2.173  43.561 -35.6130  0.00  0.00     0.000 O
ATOM     86   O  Z9L D   5      -3.562  43.468 -34.2820  0.00  0.00     0.000 OA
ATOM     87   S  Z9L D   5      -2.532  42.492 -34.4680  0.00  0.00     0.000 S
ATOM     88   O  Z9L D   5      -1.701  42.595 -33.2940  0.00  0.00     0.000 OA
ATOM     89   O  Z9L D   5      -3.206  41.313 -34.8920  0.00  0.00     0.000 OA
ENDBRANCH 78 85
BRANCH 79 90
ATOM     90   O  Z9L D   5       0.957  43.214 -34.7690  0.00  0.00     0.000 O
ATOM     91   S  Z9L D   5       0.863  44.789 -34.9890  0.00  0.00     0.000 S
ATOM     92   O  Z9L D   5      -0.390  45.462 -35.2050  0.00  0.00     0.000 OA
ATOM     93   O  Z9L D   5       2.074  45.257 -35.6150  0.00  0.00     0.000 O
ATOM     94   O  Z9L D   5       1.096  44.771 -33.5810  0.00  0.00     0.000 OA
ENDBRANCH 79 90
BRANCH 81 95
ATOM     95   C  Z9L D   5       1.703  40.079 -38.7280  0.00  0.00     0.000 C
ATOM     96   S  Z9L D   5       1.877  38.489 -39.9150  0.00  0.00     0.000 S
ATOM     97   O  Z9L D   5       0.746  39.090 -38.9990  0.00  0.00     0.000 O
ATOM     98   O  Z9L D   5       2.871  37.931 -39.0340  0.00  0.00     0.000 OA
ATOM     99   O  Z9L D   5       2.245  39.277 -41.0430  0.00  0.00     0.000 OA
ATOM    100   O  Z9L D   5       0.860  37.493 -40.1420  0.00  0.00     0.000 O
ENDBRANCH 81 95
ENDBRANCH 76 80
ENDBRANCH 60 76
ENDBRANCH 59 63
ENDBRANCH 37 59
ENDBRANCH 36 40
ENDBRANCH 23 36
ENDBRANCH 22 26
ENDBRANCH 1 22
TORSDOF 19
ENDMDL
MODEL 38
REMARK VINA RESULT:      -6.0     22.095     28.713
ROOT
ATOM      1  C1  Z9H D   1      25.712  47.885 -13.2560  0.00  0.00     0.000 C
ATOM      2  C2  Z9H D   1      25.722  48.671 -14.5890  0.00  0.00     0.000 C
ATOM      3  C3  Z9H D   1      26.005  50.090 -14.0080  0.00  0.00     0.000 C
ATOM      4  C4  Z9H D   1      25.063  50.535 -12.8130  0.00  0.00     0.000 C
ATOM      5  C5  Z9H D   1      24.745  49.609 -11.5730  0.00  0.00     0.000 C
ATOM      6  O5  Z9H D   1      24.835  48.290 -12.1690  0.00  0.00     0.000 O
ATOM      7   O  Z9H D   1      26.013  51.086 -15.0320  0.00  0.00     0.000 O
ATOM      8   C  Z9H D   1      27.314  51.467 -15.5110  0.00  0.00     0.000 C
ATOM      9   O  Z9H D   1      25.630  51.746 -12.3020  0.00  0.00     0.000 O
ATOM     10   C  Z9H D   1      25.013  52.955 -12.7530  0.00  0.00     0.000 C
ENDROOT
BRANCH 2 11
ATOM     11   O  Z9H D   1      26.937  48.261 -15.1600  0.00  0.00     0.000 O
ATOM     12   O  Z9H D   1      27.073  47.233 -16.7360  0.00  0.00     0.000 OA
ATOM     13   S  Z9H D   1      25.850  47.696 -16.1720  0.00  0.00     0.000 S
ATOM     14   O  Z9H D   1      25.270  48.805 -16.8760  0.00  0.00     0.000 OA
ATOM     15   O  Z9H D   1      25.110  46.595 -15.6010  0.00  0.00     0.000 O
ENDBRANCH 2 11
BRANCH 5 16
ATOM     16   C  Z9H D   1      23.412  50.067 -10.6700  0.00  0.00     0.000 C
ATOM     17   S  Z9H D   1      21.858  51.339 -10.5880  0.00  0.00     0.000 S
ATOM     18   O  Z9H D   1      22.587  50.469 -11.7370  0.00  0.00     0.000 O
ATOM     19   O  Z9H D   1      22.645  52.415 -10.0580  0.00  0.00     0.000 O
ATOM     20   O  Z9H D   1      21.040  50.501  -9.7830  0.00  0.00     0.000 OA
ATOM     21   O  Z9H D   1      21.082  51.750 -11.7210  0.00  0.00     0.000 OA
ENDBRANCH 5 16
BRANCH 1 22
ATOM     22  O4  GU1 D   2      27.006  47.841 -12.5530  0.00  0.00     0.000 O
BRANCH 22 26
ATOM     23  C1  GU1 D   2      29.585  45.481 -10.3740  0.00  0.00     0.000 C
ATOM     24  C2  GU1 D   2      28.837  44.756 -11.4820  0.00  0.00     0.000 C
ATOM     25  C3  GU1 D   2      28.245  45.764 -12.4240  0.00  0.00     0.000 C
ATOM     26  C4  GU1 D   2      27.406  46.785 -11.6710  0.00  0.00     0.000 C
ATOM     27  C5  GU1 D   2      28.216  47.379 -10.5140  0.00  0.00     0.000 C
ATOM     28  O5  GU1 D   2      28.704  46.344  -9.6650  0.00  0.00     0.000 O
ATOM     29   O  GU1 D   2      29.693  43.899 -12.2290  0.00  0.00     0.000 O
ATOM     30   C  GU1 D   2      29.656  42.542 -11.8080  0.00  0.00     0.000 C
ATOM     31   C  GU1 D   2      27.971  44.876 -14.6440  0.00  0.00     0.000 C
ATOM     32   O  GU1 D   2      27.402  45.074 -13.3530  0.00  0.00     0.000 O
BRANCH 27 33
ATOM     33   C  GU1 D   2      27.371  48.307  -9.6750  0.00  0.00     0.000 C
ATOM     34   O  GU1 D   2      26.426  47.841  -9.0720  0.00  0.00     0.000 OA
ATOM     35   O  GU1 D   2      27.638  49.496  -9.6030  0.00  0.00     0.000 O
ENDBRANCH 27 33
BRANCH 23 36
ATOM     36  O4  GU6 D   3      30.034  44.754  -9.2120  0.00  0.00     0.000 O
BRANCH 36 40
ATOM     37  C1  GU6 D   3      31.295  43.540  -5.5210  0.00  0.00     0.000 C
ATOM     38  C2  GU6 D   3      32.424  43.966  -6.4510  0.00  0.00     0.000 C
ATOM     39  C3  GU6 D   3      31.848  44.644  -7.6670  0.00  0.00     0.000 C
ATOM     40  C4  GU6 D   3      30.395  44.581  -7.8570  0.00  0.00     0.000 C
ATOM     41  C5  GU6 D   3      29.870  43.176  -7.4150  0.00  0.00     0.000 C
ATOM     42  O5  GU6 D   3      30.449  42.640  -6.2200  0.00  0.00     0.000 O
BRANCH 38 43
ATOM     43   O  GU6 D   3      33.314  44.841  -5.7860  0.00  0.00     0.000 O
ATOM     44   S  GU6 D   3      34.542  44.161  -5.1940  0.00  0.00     0.000 S
ATOM     45   O  GU6 D   3      34.169  43.566  -3.8990  0.00  0.00     0.000 OA
ATOM     46   O  GU6 D   3      34.979  43.096  -6.1150  0.00  0.00     0.000 O
ATOM     47   O  GU6 D   3      35.600  45.154  -5.0390  0.00  0.00     0.000 OA
ENDBRANCH 38 43
BRANCH 39 48
ATOM     48   O  GU6 D   3      32.642  45.502  -8.4640  0.00  0.00     0.000 O
ATOM     49   S  GU6 D   3      33.621  45.168  -9.5890  0.00  0.00     0.000 S
ATOM     50   O  GU6 D   3      32.951  44.370 -10.6220  0.00  0.00     0.000 OA
ATOM     51   O  GU6 D   3      34.000  46.491 -10.1030  0.00  0.00     0.000 OA
ATOM     52   O  GU6 D   3      34.761  44.412  -9.0240  0.00  0.00     0.000 O
ENDBRANCH 39 48
BRANCH 41 53
ATOM     53   C  GU6 D   3      28.826  42.308  -8.0640  0.00  0.00     0.000 C
ATOM     54   O  GU6 D   3      28.355  41.674  -6.9020  0.00  0.00     0.000 O
ATOM     55   S  GU6 D   3      27.310  40.555  -6.9950  0.00  0.00     0.000 S
ATOM     56   O  GU6 D   3      27.961  39.419  -7.6890  0.00  0.00     0.000 O
ATOM     57   O  GU6 D   3      26.911  40.172  -5.6330  0.00  0.00     0.000 OA
ATOM     58   O  GU6 D   3      26.173  41.080  -7.7850  0.00  0.00     0.000 OA
ENDBRANCH 41 53
BRANCH 37 59
ATOM     59  O4  Z9K D   4      30.446  44.442  -4.7810  0.00  0.00     0.000 O
BRANCH 59 63
ATOM     60  C1  Z9K D   4      28.801  46.782  -2.0860  0.00  0.00     0.000 C
ATOM     61  C2  Z9K D   4      30.310  47.058  -1.8420  0.00  0.00     0.000 C
ATOM     62  C3  Z9K D   4      30.962  46.255  -3.0510  0.00  0.00     0.000 C
ATOM     63  C4  Z9K D   4      30.452  44.797  -3.3680  0.00  0.00     0.000 C
ATOM     64  C5  Z9K D   4      29.010  44.479  -2.9430  0.00  0.00     0.000 C
ATOM     65  O5  Z9K D   4      28.342  45.760  -3.0900  0.00  0.00     0.000 O
ATOM     66   O  Z9K D   4      32.392  46.131  -2.9460  0.00  0.00     0.000 O
ATOM     67   C  Z9K D   4      33.115  47.234  -3.4690  0.00  0.00     0.000 C
BRANCH 61 68
ATOM     68   O  Z9K D   4      30.529  48.416  -2.1090  0.00  0.00     0.000 O
ATOM     69   O  Z9K D   4      32.056  47.583  -0.2320  0.00  0.00     0.000 OA
ATOM     70   S  Z9K D   4      30.868  48.326  -0.5280  0.00  0.00     0.000 S
ATOM     71   O  Z9K D   4      29.643  48.272   0.2090  0.00  0.00     0.000 OA
ATOM     72   O  Z9K D   4      31.180  49.685  -0.8330  0.00  0.00     0.000 OA
ENDBRANCH 61 68
BRANCH 64 73
ATOM     73   C  Z9K D   4      28.464  43.264  -3.7210  0.00  0.00     0.000 C
ATOM     74   O  Z9K D   4      28.875  42.092  -3.4790  0.00  0.00     0.000 O
ATOM     75   O  Z9K D   4      27.591  43.388  -4.6140  0.00  0.00     0.000 OA
ENDBRANCH 64 73
BRANCH 60 76
ATOM     76  O4  Z9L D   5      27.783  46.460  -1.1220  0.00  0.00     0.000 O
BRANCH 76 80
ATOM     77  C1  Z9L D   5      23.861  46.468  -0.3590  0.00  0.00     0.000 C
ATOM     78  C2  Z9L D   5      24.308  44.935  -0.5040  0.00  0.00     0.000 C
ATOM     79  C3  Z9L D   5      25.993  44.905  -0.3640  0.00  0.00     0.000 C
ATOM     80  C4  Z9L D   5      26.408  46.217  -1.2710  0.00  0.00     0.000 C
ATOM     81  C5  Z9L D   5      25.807  47.713  -1.2970  0.00  0.00     0.000 C
ATOM     82  O5  Z9L D   5      24.382  47.577  -1.1970  0.00  0.00     0.000 O
ATOM     83   C  Z9L D   5      23.584  48.199   1.3210  0.00  0.00     0.000 C
ATOM     84   C  Z9L D   5      23.584  48.199   1.3210  0.00  0.00     0.000 C
BRANCH 78 85
ATOM     85   O  Z9L D   5      23.750  44.220   0.5530  0.00  0.00     0.000 O
ATOM     86   O  Z9L D   5      22.380  42.878   0.3790  0.00  0.00     0.000 OA
ATOM     87   S  Z9L D   5      23.044  43.523  -0.7120  0.00  0.00     0.000 S
ATOM     88   O  Z9L D   5      23.842  42.492  -1.3270  0.00  0.00     0.000 OA
ATOM     89   O  Z9L D   5      22.035  44.279  -1.3700  0.00  0.00     0.000 OA
ENDBRANCH 78 85
BRANCH 79 90
ATOM     90   O  Z9L D   5      26.543  43.851  -1.0880  0.00  0.00     0.000 O
ATOM     91   S  Z9L D   5      27.120  43.512   0.3570  0.00  0.00     0.000 S
ATOM     92   O  Z9L D   5      26.270  43.335   1.5040  0.00  0.00     0.000 OA
ATOM     93   O  Z9L D   5      28.437  44.085   0.4920  0.00  0.00     0.000 O
ATOM     94   O  Z9L D   5      27.278  42.233  -0.2540  0.00  0.00     0.000 OA
ENDBRANCH 79 90
BRANCH 81 95
ATOM     95   C  Z9L D   5      26.432  48.773  -2.4370  0.00  0.00     0.000 C
ATOM     96   S  Z9L D   5      26.661  50.692  -2.9200  0.00  0.00     0.000 S
ATOM     97   O  Z9L D   5      25.536  49.832  -2.2290  0.00  0.00     0.000 O
ATOM     98   O  Z9L D   5      26.644  50.349  -4.3190  0.00  0.00     0.000 OA
ATOM     99   O  Z9L D   5      27.884  50.805  -2.1990  0.00  0.00     0.000 OA
ATOM    100   O  Z9L D   5      25.693  51.737  -2.6960  0.00  0.00     0.000 O
ENDBRANCH 81 95
ENDBRANCH 76 80
ENDBRANCH 60 76
ENDBRANCH 59 63
ENDBRANCH 37 59
ENDBRANCH 36 40
ENDBRANCH 23 36
ENDBRANCH 22 26
ENDBRANCH 1 22
TORSDOF 19
ENDMDL
MODEL 39
REMARK VINA RESULT:      -6.0     31.859     41.160
ROOT
ATOM      1  C1  Z9H D   1      -2.771  21.538 -22.7340  0.00  0.00     0.000 C
ATOM      2  C2  Z9H D   1      -1.781  22.667 -23.1090  0.00  0.00     0.000 C
ATOM      3  C3  Z9H D   1      -0.750  21.804 -23.8990  0.00  0.00     0.000 C
ATOM      4  C4  Z9H D   1      -0.245  20.499 -23.1560  0.00  0.00     0.000 C
ATOM      5  C5  Z9H D   1      -1.220  19.477 -22.4460  0.00  0.00     0.000 C
ATOM      6  O5  Z9H D   1      -2.304  20.349 -22.0390  0.00  0.00     0.000 O
ATOM      7   O  Z9H D   1       0.361  22.585 -24.3410  0.00  0.00     0.000 O
ATOM      8   C  Z9H D   1       0.298  23.029 -25.7070  0.00  0.00     0.000 C
ATOM      9   O  Z9H D   1       0.504  19.762 -24.1280  0.00  0.00     0.000 O
ATOM     10   C  Z9H D   1       1.925  19.910 -24.0540  0.00  0.00     0.000 C
ENDROOT
BRANCH 2 11
ATOM     11   O  Z9H D   1      -2.498  23.370 -24.0910  0.00  0.00     0.000 O
ATOM     12   O  Z9H D   1      -2.938  25.200 -23.9740  0.00  0.00     0.000 OA
ATOM     13   S  Z9H D   1      -2.171  24.486 -23.0090  0.00  0.00     0.000 S
ATOM     14   O  Z9H D   1      -0.764  24.768 -23.0620  0.00  0.00     0.000 OA
ATOM     15   O  Z9H D   1      -2.935  24.297 -21.7980  0.00  0.00     0.000 O
ENDBRANCH 2 11
BRANCH 5 16
ATOM     16   C  Z9H D   1      -0.487  18.434 -21.3610  0.00  0.00     0.000 C
ATOM     17   S  Z9H D   1       0.579  18.338 -19.6600  0.00  0.00     0.000 S
ATOM     18   O  Z9H D   1      -0.671  19.207 -20.1990  0.00  0.00     0.000 O
ATOM     19   O  Z9H D   1       1.827  18.608 -20.3140  0.00  0.00     0.000 O
ATOM     20   O  Z9H D   1       0.151  17.030 -19.3060  0.00  0.00     0.000 OA
ATOM     21   O  Z9H D   1       0.375  19.188 -18.5220  0.00  0.00     0.000 OA
ENDBRANCH 5 16
BRANCH 1 22
ATOM     22  O4  GU1 D   2      -3.471  20.923 -23.8760  0.00  0.00     0.000 O
BRANCH 22 26
ATOM     23  C1  GU1 D   2      -7.200  19.752 -25.1770  0.00  0.00     0.000 C
ATOM     24  C2  GU1 D   2      -7.207  20.782 -24.0570  0.00  0.00     0.000 C
ATOM     25  C3  GU1 D   2      -5.844  21.400 -23.9410  0.00  0.00     0.000 C
ATOM     26  C4  GU1 D   2      -4.772  20.330 -23.7970  0.00  0.00     0.000 C
ATOM     27  C5  GU1 D   2      -4.917  19.288 -24.9110  0.00  0.00     0.000 C
ATOM     28  O5  GU1 D   2      -6.233  18.742 -24.9130  0.00  0.00     0.000 O
ATOM     29   O  GU1 D   2      -8.148  21.821 -24.2960  0.00  0.00     0.000 O
ATOM     30   C  GU1 D   2      -9.395  21.630 -23.6430  0.00  0.00     0.000 C
ATOM     31   C  GU1 D   2      -5.935  23.627 -23.0330  0.00  0.00     0.000 C
ATOM     32   O  GU1 D   2      -5.822  22.230 -22.7750  0.00  0.00     0.000 O
BRANCH 27 33
ATOM     33   C  GU1 D   2      -3.943  18.149 -24.7240  0.00  0.00     0.000 C
ATOM     34   O  GU1 D   2      -3.375  17.709 -25.7030  0.00  0.00     0.000 OA
ATOM     35   O  GU1 D   2      -3.733  17.688 -23.6140  0.00  0.00     0.000 O
ENDBRANCH 27 33
BRANCH 23 36
ATOM     36  O4  GU6 D   3      -8.311  18.846 -25.3300  0.00  0.00     0.000 O
BRANCH 36 40
ATOM     37  C1  GU6 D   3     -10.935  15.969 -26.5660  0.00  0.00     0.000 C
ATOM     38  C2  GU6 D   3     -10.792  17.134 -27.5380  0.00  0.00     0.000 C
ATOM     39  C3  GU6 D   3      -9.620  17.989 -27.1320  0.00  0.00     0.000 C
ATOM     40  C4  GU6 D   3      -8.996  17.717 -25.8320  0.00  0.00     0.000 C
ATOM     41  C5  GU6 D   3     -10.102  17.347 -24.7890  0.00  0.00     0.000 C
ATOM     42  O5  GU6 D   3     -11.147  16.490 -25.2630  0.00  0.00     0.000 O
BRANCH 38 43
ATOM     43   O  GU6 D   3     -10.610  16.660 -28.8580  0.00  0.00     0.000 O
ATOM     44   S  GU6 D   3     -11.828  16.823 -29.7580  0.00  0.00     0.000 S
ATOM     45   O  GU6 D   3     -12.756  15.710 -29.4950  0.00  0.00     0.000 OA
ATOM     46   O  GU6 D   3     -12.488  18.099 -29.4310  0.00  0.00     0.000 O
ATOM     47   O  GU6 D   3     -11.386  16.830 -31.1500  0.00  0.00     0.000 OA
ENDBRANCH 38 43
BRANCH 39 48
ATOM     48   O  GU6 D   3      -8.999  18.858 -28.0590  0.00  0.00     0.000 O
ATOM     49   S  GU6 D   3      -9.353  20.293 -28.4470  0.00  0.00     0.000 S
ATOM     50   O  GU6 D   3      -9.393  21.144 -27.2520  0.00  0.00     0.000 OA
ATOM     51   O  GU6 D   3      -8.250  20.679 -29.3370  0.00  0.00     0.000 OA
ATOM     52   O  GU6 D   3     -10.673  20.298 -29.1160  0.00  0.00     0.000 O
ENDBRANCH 39 48
BRANCH 41 53
ATOM     53   C  GU6 D   3     -10.216  17.755 -23.3440  0.00  0.00     0.000 C
ATOM     54   O  GU6 D   3     -11.615  17.861 -23.2860  0.00  0.00     0.000 O
ATOM     55   S  GU6 D   3     -12.303  18.376 -22.0150  0.00  0.00     0.000 S
ATOM     56   O  GU6 D   3     -11.909  19.796 -21.8610  0.00  0.00     0.000 O
ATOM     57   O  GU6 D   3     -13.758  18.257 -22.1900  0.00  0.00     0.000 OA
ATOM     58   O  GU6 D   3     -11.807  17.560 -20.8850  0.00  0.00     0.000 OA
ENDBRANCH 41 53
BRANCH 37 59
ATOM     59  O4  Z9K D   4     -10.005  14.872 -26.4440  0.00  0.00     0.000 O
BRANCH 59 63
ATOM     60  C1  Z9K D   4     -10.097  12.890 -29.8360  0.00  0.00     0.000 C
ATOM     61  C2  Z9K D   4     -11.297  12.252 -29.0830  0.00  0.00     0.000 C
ATOM     62  C3  Z9K D   4     -11.370  13.180 -27.7930  0.00  0.00     0.000 C
ATOM     63  C4  Z9K D   4     -10.039  13.538 -27.0280  0.00  0.00     0.000 C
ATOM     64  C5  Z9K D   4      -8.752  13.513 -27.8660  0.00  0.00     0.000 C
ATOM     65  O5  Z9K D   4      -9.215  13.918 -29.1810  0.00  0.00     0.000 O
ATOM     66   O  Z9K D   4     -12.255  12.674 -26.7780  0.00  0.00     0.000 O
ATOM     67   C  Z9K D   4     -13.614  13.041 -26.9500  0.00  0.00     0.000 C
BRANCH 61 68
ATOM     68   O  Z9K D   4     -12.448  12.530 -29.8330  0.00  0.00     0.000 O
ATOM     69   O  Z9K D   4     -12.672  10.310 -28.5790  0.00  0.00     0.000 OA
ATOM     70   S  Z9K D   4     -12.416  10.911 -29.8540  0.00  0.00     0.000 S
ATOM     71   O  Z9K D   4     -11.436  10.476 -30.8020  0.00  0.00     0.000 OA
ATOM     72   O  Z9K D   4     -13.637  11.203 -30.5330  0.00  0.00     0.000 OA
ENDBRANCH 61 68
BRANCH 64 73
ATOM     73   C  Z9K D   4      -7.638  14.337 -27.1860  0.00  0.00     0.000 C
ATOM     74   O  Z9K D   4      -7.209  15.410 -27.7010  0.00  0.00     0.000 O
ATOM     75   O  Z9K D   4      -7.122  13.981 -26.0990  0.00  0.00     0.000 OA
ENDBRANCH 64 73
BRANCH 60 76
ATOM     76  O4  Z9L D   5      -9.016  12.230 -30.5170  0.00  0.00     0.000 O
BRANCH 76 80
ATOM     77  C1  Z9L D   5      -6.834  12.063 -33.8610  0.00  0.00     0.000 C
ATOM     78  C2  Z9L D   5      -5.884  12.647 -32.7090  0.00  0.00     0.000 C
ATOM     79  C3  Z9L D   5      -6.633  12.291 -31.2350  0.00  0.00     0.000 C
ATOM     80  C4  Z9L D   5      -8.204  12.641 -31.5870  0.00  0.00     0.000 C
ATOM     81  C5  Z9L D   5      -9.111  12.251 -32.8620  0.00  0.00     0.000 C
ATOM     82  O5  Z9L D   5      -8.272  12.402 -34.0160  0.00  0.00     0.000 O
ATOM     83   C  Z9L D   5      -7.477   9.958 -34.8870  0.00  0.00     0.000 C
ATOM     84   C  Z9L D   5      -7.477   9.958 -34.8870  0.00  0.00     0.000 C
BRANCH 78 85
ATOM     85   O  Z9L D   5      -4.665  11.978 -32.7740  0.00  0.00     0.000 O
ATOM     86   O  Z9L D   5      -3.000  12.764 -33.3400  0.00  0.00     0.000 OA
ATOM     87   S  Z9L D   5      -4.226  13.477 -33.1520  0.00  0.00     0.000 S
ATOM     88   O  Z9L D   5      -3.996  14.321 -32.0060  0.00  0.00     0.000 OA
ATOM     89   O  Z9L D   5      -4.594  13.938 -34.4460  0.00  0.00     0.000 OA
ENDBRANCH 78 85
BRANCH 79 90
ATOM     90   O  Z9L D   5      -6.321  13.241 -30.2660  0.00  0.00     0.000 O
ATOM     91   S  Z9L D   5      -5.684  11.948 -29.5880  0.00  0.00     0.000 S
ATOM     92   O  Z9L D   5      -4.701  11.134 -30.2540  0.00  0.00     0.000 OA
ATOM     93   O  Z9L D   5      -6.641  11.363 -28.6820  0.00  0.00     0.000 O
ATOM     94   O  Z9L D   5      -4.978  12.955 -28.8630  0.00  0.00     0.000 OA
ENDBRANCH 79 90
BRANCH 81 95
ATOM     95   C  Z9L D   5     -10.668  12.873 -32.9180  0.00  0.00     0.000 C
ATOM     96   S  Z9L D   5     -11.856  14.204 -33.8030  0.00  0.00     0.000 S
ATOM     97   O  Z9L D   5     -10.345  14.165 -33.3590  0.00  0.00     0.000 O
ATOM     98   O  Z9L D   5     -12.639  14.317 -32.5990  0.00  0.00     0.000 OA
ATOM     99   O  Z9L D   5     -12.220  13.301 -34.8420  0.00  0.00     0.000 OA
ATOM    100   O  Z9L D   5     -11.470  15.529 -34.2220  0.00  0.00     0.000 O
ENDBRANCH 81 95
ENDBRANCH 76 80
ENDBRANCH 60 76
ENDBRANCH 59 63
ENDBRANCH 37 59
ENDBRANCH 36 40
ENDBRANCH 23 36
ENDBRANCH 22 26
ENDBRANCH 1 22
TORSDOF 19
ENDMDL
MODEL 40
REMARK VINA RESULT:      -5.9     29.729     36.333
ROOT
ATOM      1  C1  Z9H D   1      33.111  10.530 -53.3220  0.00  0.00     0.000 C
ATOM      2  C2  Z9H D   1      34.590  10.090 -53.4390  0.00  0.00     0.000 C
ATOM      3  C3  Z9H D   1      34.596   9.732 -54.9570  0.00  0.00     0.000 C
ATOM      4  C4  Z9H D   1      33.427   8.774 -55.4340  0.00  0.00     0.000 C
ATOM      5  C5  Z9H D   1      31.912   8.999 -55.0420  0.00  0.00     0.000 C
ATOM      6  O5  Z9H D   1      32.042   9.640 -53.7480  0.00  0.00     0.000 O
ATOM      7   O  Z9H D   1      35.862   9.215 -55.3710  0.00  0.00     0.000 O
ATOM      8   C  Z9H D   1      36.737  10.162 -56.0060  0.00  0.00     0.000 C
ATOM      9   O  Z9H D   1      33.496   8.759 -56.8630  0.00  0.00     0.000 O
ATOM     10   C  Z9H D   1      34.159   7.628 -57.4370  0.00  0.00     0.000 C
ENDROOT
BRANCH 2 11
ATOM     11   O  Z9H D   1      35.268  11.316 -53.3490  0.00  0.00     0.000 O
ATOM     12   O  Z9H D   1      36.388  11.805 -51.9130  0.00  0.00     0.000 OA
ATOM     13   S  Z9H D   1      35.733  10.546 -52.0400  0.00  0.00     0.000 S
ATOM     14   O  Z9H D   1      36.605   9.476 -52.4320  0.00  0.00     0.000 OA
ATOM     15   O  Z9H D   1      34.662  10.436 -51.0760  0.00  0.00     0.000 O
ENDBRANCH 2 11
BRANCH 5 16
ATOM     16   C  Z9H D   1      30.919   7.669 -55.2580  0.00  0.00     0.000 C
ATOM     17   S  Z9H D   1      30.844   5.662 -55.1790  0.00  0.00     0.000 S
ATOM     18   O  Z9H D   1      31.502   6.835 -54.2860  0.00  0.00     0.000 O
ATOM     19   O  Z9H D   1      31.429   5.493 -56.4780  0.00  0.00     0.000 O
ATOM     20   O  Z9H D   1      29.445   5.589 -54.9390  0.00  0.00     0.000 OA
ATOM     21   O  Z9H D   1      31.500   4.861 -54.1870  0.00  0.00     0.000 OA
ENDBRANCH 5 16
BRANCH 1 22
ATOM     22  O4  GU1 D   2      32.766  11.746 -54.0790  0.00  0.00     0.000 O
BRANCH 22 26
ATOM     23  C1  GU1 D   2      30.508  15.191 -54.1470  0.00  0.00     0.000 C
ATOM     24  C2  GU1 D   2      31.162  14.881 -52.8090  0.00  0.00     0.000 C
ATOM     25  C3  GU1 D   2      32.237  13.852 -53.0070  0.00  0.00     0.000 C
ATOM     26  C4  GU1 D   2      31.693  12.630 -53.7330  0.00  0.00     0.000 C
ATOM     27  C5  GU1 D   2      30.965  13.060 -55.0100  0.00  0.00     0.000 C
ATOM     28  O5  GU1 D   2      29.947  14.010 -54.7080  0.00  0.00     0.000 O
ATOM     29   O  GU1 D   2      31.754  16.036 -52.2260  0.00  0.00     0.000 O
ATOM     30   C  GU1 D   2      30.930  16.682 -51.2660  0.00  0.00     0.000 C
ATOM     31   C  GU1 D   2      33.965  14.016 -51.3400  0.00  0.00     0.000 C
ATOM     32   O  GU1 D   2      32.716  13.445 -51.7210  0.00  0.00     0.000 O
BRANCH 27 33
ATOM     33   C  GU1 D   2      30.311  11.881 -55.6900  0.00  0.00     0.000 C
ATOM     34   O  GU1 D   2      29.396  11.321 -55.1210  0.00  0.00     0.000 OA
ATOM     35   O  GU1 D   2      30.694  11.506 -56.7870  0.00  0.00     0.000 O
ENDBRANCH 27 33
BRANCH 23 36
ATOM     36  O4  GU6 D   3      29.290  15.960 -54.1920  0.00  0.00     0.000 O
BRANCH 36 40
ATOM     37  C1  GU6 D   3      26.452  18.899 -54.2360  0.00  0.00     0.000 C
ATOM     38  C2  GU6 D   3      26.166  17.777 -53.2450  0.00  0.00     0.000 C
ATOM     39  C3  GU6 D   3      27.383  16.901 -53.1090  0.00  0.00     0.000 C
ATOM     40  C4  GU6 D   3      28.484  17.113 -54.0550  0.00  0.00     0.000 C
ATOM     41  C5  GU6 D   3      27.903  17.441 -55.4700  0.00  0.00     0.000 C
ATOM     42  O5  GU6 D   3      26.774  18.322 -55.4920  0.00  0.00     0.000 O
BRANCH 38 43
ATOM     43   O  GU6 D   3      25.809  18.307 -51.9830  0.00  0.00     0.000 O
ATOM     44   S  GU6 D   3      24.309  18.360 -51.7240  0.00  0.00     0.000 S
ATOM     45   O  GU6 D   3      23.763  19.563 -52.3760  0.00  0.00     0.000 OA
ATOM     46   O  GU6 D   3      23.687  17.160 -52.3120  0.00  0.00     0.000 O
ATOM     47   O  GU6 D   3      24.081  18.386 -50.2830  0.00  0.00     0.000 OA
ENDBRANCH 38 43
BRANCH 39 48
ATOM     48   O  GU6 D   3      27.558  16.071 -51.9770  0.00  0.00     0.000 O
ATOM     49   S  GU6 D   3      26.990  14.683 -51.6820  0.00  0.00     0.000 S
ATOM     50   O  GU6 D   3      27.337  13.754 -52.7640  0.00  0.00     0.000 OA
ATOM     51   O  GU6 D   3      27.658  14.310 -50.4280  0.00  0.00     0.000 OA
ATOM     52   O  GU6 D   3      25.519  14.783 -51.5530  0.00  0.00     0.000 O
ENDBRANCH 39 48
BRANCH 41 53
ATOM     53   C  GU6 D   3      28.373  16.971 -56.8200  0.00  0.00     0.000 C
ATOM     54   O  GU6 D   3      27.897  18.055 -57.5750  0.00  0.00     0.000 O
ATOM     55   S  GU6 D   3      28.011  18.046 -59.1060  0.00  0.00     0.000 S
ATOM     56   O  GU6 D   3      27.133  16.958 -59.5940  0.00  0.00     0.000 O
ATOM     57   O  GU6 D   3      27.559  19.348 -59.6160  0.00  0.00     0.000 OA
ATOM     58   O  GU6 D   3      29.428  17.776 -59.4390  0.00  0.00     0.000 OA
ENDBRANCH 41 53
BRANCH 37 59
ATOM     59  O4  Z9K D   4      27.375  19.986 -54.0130  0.00  0.00     0.000 O
BRANCH 59 63
ATOM     60  C1  Z9K D   4      28.204  23.798 -53.5400  0.00  0.00     0.000 C
ATOM     61  C2  Z9K D   4      26.867  23.876 -54.3280  0.00  0.00     0.000 C
ATOM     62  C3  Z9K D   4      26.443  22.344 -54.3560  0.00  0.00     0.000 C
ATOM     63  C4  Z9K D   4      27.525  21.255 -54.7140  0.00  0.00     0.000 C
ATOM     64  C5  Z9K D   4      28.984  21.628 -54.4110  0.00  0.00     0.000 C
ATOM     65  O5  Z9K D   4      28.863  22.479 -53.2420  0.00  0.00     0.000 O
ATOM     66   O  Z9K D   4      25.340  22.074 -55.2390  0.00  0.00     0.000 O
ATOM     67   C  Z9K D   4      24.062  22.275 -54.6590  0.00  0.00     0.000 C
BRANCH 61 68
ATOM     68   O  Z9K D   4      25.940  24.526 -53.5020  0.00  0.00     0.000 O
ATOM     69   O  Z9K D   4      25.489  25.025 -55.9710  0.00  0.00     0.000 OA
ATOM     70   S  Z9K D   4      26.042  25.545 -54.7570  0.00  0.00     0.000 S
ATOM     71   O  Z9K D   4      27.251  26.302 -54.6460  0.00  0.00     0.000 OA
ATOM     72   O  Z9K D   4      25.029  26.148 -53.9530  0.00  0.00     0.000 OA
ENDBRANCH 61 68
BRANCH 64 73
ATOM     73   C  Z9K D   4      29.866  20.364 -54.3200  0.00  0.00     0.000 C
ATOM     74   O  Z9K D   4      30.213  19.886 -53.2010  0.00  0.00     0.000 O
ATOM     75   O  Z9K D   4      30.265  19.761 -55.3460  0.00  0.00     0.000 OA
ENDBRANCH 64 73
BRANCH 60 76
ATOM     76  O4  Z9L D   5      29.439  24.485 -53.8040  0.00  0.00     0.000 O
BRANCH 76 80
ATOM     77  C1  Z9L D   5      32.925  25.731 -52.2980  0.00  0.00     0.000 C
ATOM     78  C2  Z9L D   5      33.249  24.508 -53.2840  0.00  0.00     0.000 C
ATOM     79  C3  Z9L D   5      31.880  24.289 -54.2530  0.00  0.00     0.000 C
ATOM     80  C4  Z9L D   5      30.676  24.458 -53.1400  0.00  0.00     0.000 C
ATOM     81  C5  Z9L D   5      30.457  25.561 -51.9840  0.00  0.00     0.000 C
ATOM     82  O5  Z9L D   5      31.746  25.792 -51.3970  0.00  0.00     0.000 O
ATOM     83   C  Z9L D   5      32.742  28.151 -52.2950  0.00  0.00     0.000 C
ATOM     84   C  Z9L D   5      32.742  28.151 -52.2950  0.00  0.00     0.000 C
BRANCH 78 85
ATOM     85   O  Z9L D   5      34.323  24.876 -54.0900  0.00  0.00     0.000 O
ATOM     86   O  Z9L D   5      36.091  24.118 -53.9910  0.00  0.00     0.000 OA
ATOM     87   S  Z9L D   5      34.954  23.657 -53.2540  0.00  0.00     0.000 S
ATOM     88   O  Z9L D   5      34.653  22.359 -53.8030  0.00  0.00     0.000 OA
ATOM     89   O  Z9L D   5      35.262  23.917 -51.8900  0.00  0.00     0.000 OA
ENDBRANCH 78 85
BRANCH 79 90
ATOM     90   O  Z9L D   5      31.744  22.960 -54.6450  0.00  0.00     0.000 O
ATOM     91   S  Z9L D   5      31.788  23.659 -56.0760  0.00  0.00     0.000 S
ATOM     92   O  Z9L D   5      32.876  24.506 -56.4870  0.00  0.00     0.000 OA
ATOM     93   O  Z9L D   5      30.441  23.911 -56.5250  0.00  0.00     0.000 O
ATOM     94   O  Z9L D   5      32.119  22.326 -56.4650  0.00  0.00     0.000 OA
ENDBRANCH 79 90
BRANCH 81 95
ATOM     95   C  Z9L D   5      29.140  25.355 -50.9650  0.00  0.00     0.000 C
ATOM     96   S  Z9L D   5      28.501  25.500 -49.0850  0.00  0.00     0.000 S
ATOM     97   O  Z9L D   5      29.847  25.081 -49.7860  0.00  0.00     0.000 O
ATOM     98   O  Z9L D   5      27.563  24.431 -49.3130  0.00  0.00     0.000 OA
ATOM     99   O  Z9L D   5      28.121  26.864 -49.2390  0.00  0.00     0.000 OA
ATOM    100   O  Z9L D   5      29.272  25.186 -47.9070  0.00  0.00     0.000 O
ENDBRANCH 81 95
ENDBRANCH 76 80
ENDBRANCH 60 76
ENDBRANCH 59 63
ENDBRANCH 37 59
ENDBRANCH 36 40
ENDBRANCH 23 36
ENDBRANCH 22 26
ENDBRANCH 1 22
TORSDOF 19
ENDMDL
MODEL 41
REMARK VINA RESULT:      -5.9     31.573     39.215
ROOT
ATOM      1  C1  Z9H D   1      -2.589  22.246 -22.8120  0.00  0.00     0.000 C
ATOM      2  C2  Z9H D   1      -1.611  23.230 -23.4970  0.00  0.00     0.000 C
ATOM      3  C3  Z9H D   1      -0.616  22.181 -24.0820  0.00  0.00     0.000 C
ATOM      4  C4  Z9H D   1      -0.086  21.099 -23.0530  0.00  0.00     0.000 C
ATOM      5  C5  Z9H D   1      -1.035  20.302 -22.0720  0.00  0.00     0.000 C
ATOM      6  O5  Z9H D   1      -2.098  21.264 -21.8570  0.00  0.00     0.000 O
ATOM      7   O  Z9H D   1       0.480  22.811 -24.7490  0.00  0.00     0.000 O
ATOM      8   C  Z9H D   1       0.363  22.898 -26.1790  0.00  0.00     0.000 C
ATOM      9   O  Z9H D   1       0.621  20.131 -23.8360  0.00  0.00     0.000 O
ATOM     10   C  Z9H D   1       2.045  20.273 -23.8550  0.00  0.00     0.000 C
ENDROOT
BRANCH 2 11
ATOM     11   O  Z9H D   1      -2.364  23.672 -24.5960  0.00  0.00     0.000 O
ATOM     12   O  Z9H D   1      -3.011  25.433 -24.7970  0.00  0.00     0.000 OA
ATOM     13   S  Z9H D   1      -2.206  24.982 -23.7110  0.00  0.00     0.000 S
ATOM     14   O  Z9H D   1      -0.839  25.414 -23.7850  0.00  0.00     0.000 OA
ATOM     15   O  Z9H D   1      -2.990  24.907 -22.5000  0.00  0.00     0.000 O
ENDBRANCH 2 11
BRANCH 5 16
ATOM     16   C  Z9H D   1      -0.263  19.557 -20.7880  0.00  0.00     0.000 C
ATOM     17   S  Z9H D   1      -0.128  17.850 -19.7360  0.00  0.00     0.000 S
ATOM     18   O  Z9H D   1      -0.271  18.244 -21.2950  0.00  0.00     0.000 O
ATOM     19   O  Z9H D   1      -1.280  18.142 -18.9320  0.00  0.00     0.000 O
ATOM     20   O  Z9H D   1       1.206  18.068 -19.2950  0.00  0.00     0.000 OA
ATOM     21   O  Z9H D   1      -0.190  16.536 -20.3050  0.00  0.00     0.000 OA
ENDBRANCH 5 16
BRANCH 1 22
ATOM     22  O4  GU1 D   2      -3.336  21.372 -23.7340  0.00  0.00     0.000 O
BRANCH 22 26
ATOM     23  C1  GU1 D   2      -6.797  19.193 -24.2270  0.00  0.00     0.000 C
ATOM     24  C2  GU1 D   2      -6.947  20.448 -23.3810  0.00  0.00     0.000 C
ATOM     25  C3  GU1 D   2      -5.753  21.335 -23.5910  0.00  0.00     0.000 C
ATOM     26  C4  GU1 D   2      -4.459  20.571 -23.3490  0.00  0.00     0.000 C
ATOM     27  C5  GU1 D   2      -4.455  19.276 -24.1670  0.00  0.00     0.000 C
ATOM     28  O5  GU1 D   2      -5.610  18.495 -23.8700  0.00  0.00     0.000 O
ATOM     29   O  GU1 D   2      -8.114  21.186 -23.7240  0.00  0.00     0.000 O
ATOM     30   C  GU1 D   2      -9.229  20.921 -22.8850  0.00  0.00     0.000 C
ATOM     31   C  GU1 D   2      -6.271  23.654 -23.2110  0.00  0.00     0.000 C
ATOM     32   O  GU1 D   2      -5.825  22.418 -22.6580  0.00  0.00     0.000 O
BRANCH 27 33
ATOM     33   C  GU1 D   2      -3.238  18.438 -23.8560  0.00  0.00     0.000 C
ATOM     34   O  GU1 D   2      -3.278  17.694 -22.8980  0.00  0.00     0.000 OA
ATOM     35   O  GU1 D   2      -2.241  18.507 -24.5580  0.00  0.00     0.000 O
ENDBRANCH 27 33
BRANCH 23 36
ATOM     36  O4  GU6 D   3      -7.684  18.075 -24.0210  0.00  0.00     0.000 O
BRANCH 36 40
ATOM     37  C1  GU6 D   3      -9.371  14.356 -23.9270  0.00  0.00     0.000 C
ATOM     38  C2  GU6 D   3     -10.384  15.493 -23.9760  0.00  0.00     0.000 C
ATOM     39  C3  GU6 D   3      -9.675  16.787 -24.2810  0.00  0.00     0.000 C
ATOM     40  C4  GU6 D   3      -8.208  16.784 -24.2520  0.00  0.00     0.000 C
ATOM     41  C5  GU6 D   3      -7.711  15.868 -23.0850  0.00  0.00     0.000 C
ATOM     42  O5  GU6 D   3      -8.423  14.638 -22.9100  0.00  0.00     0.000 O
BRANCH 38 43
ATOM     43   O  GU6 D   3     -11.370  15.240 -24.9580  0.00  0.00     0.000 O
ATOM     44   S  GU6 D   3     -12.785  15.107 -24.4100  0.00  0.00     0.000 S
ATOM     45   O  GU6 D   3     -12.959  13.739 -23.8910  0.00  0.00     0.000 OA
ATOM     46   O  GU6 D   3     -12.956  16.073 -23.3100  0.00  0.00     0.000 O
ATOM     47   O  GU6 D   3     -13.733  15.395 -25.4810  0.00  0.00     0.000 OA
ENDBRANCH 38 43
BRANCH 39 48
ATOM     48   O  GU6 D   3     -10.381  17.897 -24.8020  0.00  0.00     0.000 O
ATOM     49   S  GU6 D   3     -10.501  18.395 -26.2420  0.00  0.00     0.000 S
ATOM     50   O  GU6 D   3     -10.995  17.319 -27.1090  0.00  0.00     0.000 OA
ATOM     51   O  GU6 D   3     -11.481  19.485 -26.1360  0.00  0.00     0.000 OA
ATOM     52   O  GU6 D   3      -9.171  18.849 -26.7050  0.00  0.00     0.000 O
ENDBRANCH 39 48
BRANCH 41 53
ATOM     53   C  GU6 D   3      -6.573  16.091 -22.1250  0.00  0.00     0.000 C
ATOM     54   O  GU6 D   3      -7.271  16.856 -21.1770  0.00  0.00     0.000 O
ATOM     55   S  GU6 D   3      -6.534  17.475 -19.9820  0.00  0.00     0.000 S
ATOM     56   O  GU6 D   3      -5.605  18.489 -20.5310  0.00  0.00     0.000 O
ATOM     57   O  GU6 D   3      -7.525  18.103 -19.0950  0.00  0.00     0.000 OA
ATOM     58   O  GU6 D   3      -5.794  16.383 -19.3100  0.00  0.00     0.000 OA
ENDBRANCH 41 53
BRANCH 37 59
ATOM     59  O4  Z9K D   4      -8.643  13.845 -25.0630  0.00  0.00     0.000 O
BRANCH 59 63
ATOM     60  C1  Z9K D   4      -6.152  11.335 -26.7780  0.00  0.00     0.000 C
ATOM     61  C2  Z9K D   4      -5.715  11.224 -25.2920  0.00  0.00     0.000 C
ATOM     62  C3  Z9K D   4      -6.840  12.095 -24.5810  0.00  0.00     0.000 C
ATOM     63  C4  Z9K D   4      -7.236  13.490 -25.2000  0.00  0.00     0.000 C
ATOM     64  C5  Z9K D   4      -7.002  13.649 -26.7100  0.00  0.00     0.000 C
ATOM     65  O5  Z9K D   4      -7.217  12.304 -27.2130  0.00  0.00     0.000 O
ATOM     66   O  Z9K D   4      -6.556  12.372 -23.1980  0.00  0.00     0.000 O
ATOM     67   C  Z9K D   4      -6.969  11.356 -22.3000  0.00  0.00     0.000 C
BRANCH 61 68
ATOM     68   O  Z9K D   4      -5.936   9.898 -24.8960  0.00  0.00     0.000 O
ATOM     69   O  Z9K D   4      -3.905  10.895 -23.7000  0.00  0.00     0.000 OA
ATOM     70   S  Z9K D   4      -4.327  10.026 -24.7570  0.00  0.00     0.000 S
ATOM     71   O  Z9K D   4      -3.738   9.945 -26.0580  0.00  0.00     0.000 OA
ATOM     72   O  Z9K D   4      -4.574   8.709 -24.2650  0.00  0.00     0.000 OA
ENDBRANCH 61 68
BRANCH 64 73
ATOM     73   C  Z9K D   4      -7.858  14.800 -27.2800  0.00  0.00     0.000 C
ATOM     74   O  Z9K D   4      -7.464  16.001 -27.2200  0.00  0.00     0.000 O
ATOM     75   O  Z9K D   4      -8.967  14.590 -27.8280  0.00  0.00     0.000 OA
ENDBRANCH 64 73
BRANCH 60 76
ATOM     76  O4  Z9L D   5      -5.329  11.543 -27.9390  0.00  0.00     0.000 O
BRANCH 76 80
ATOM     77  C1  Z9L D   5      -4.722  10.499 -31.7490  0.00  0.00     0.000 C
ATOM     78  C2  Z9L D   5      -5.190  12.033 -31.7510  0.00  0.00     0.000 C
ATOM     79  C3  Z9L D   5      -5.001  12.601 -30.1690  0.00  0.00     0.000 C
ATOM     80  C4  Z9L D   5      -5.576  11.322 -29.3040  0.00  0.00     0.000 C
ATOM     81  C5  Z9L D   5      -5.289   9.741 -29.4410  0.00  0.00     0.000 C
ATOM     82  O5  Z9L D   5      -5.273   9.455 -30.8480  0.00  0.00     0.000 O
ATOM     83   C  Z9L D   5      -2.709   9.144 -31.6810  0.00  0.00     0.000 C
ATOM     84   C  Z9L D   5      -2.709   9.144 -31.6810  0.00  0.00     0.000 C
BRANCH 78 85
ATOM     85   O  Z9L D   5      -4.340  12.742 -32.5950  0.00  0.00     0.000 O
ATOM     86   O  Z9L D   5      -4.868  13.581 -34.2460  0.00  0.00     0.000 OA
ATOM     87   S  Z9L D   5      -5.760  12.960 -33.3150  0.00  0.00     0.000 S
ATOM     88   O  Z9L D   5      -6.534  14.043 -32.7600  0.00  0.00     0.000 OA
ATOM     89   O  Z9L D   5      -6.299  11.839 -34.0050  0.00  0.00     0.000 OA
ENDBRANCH 78 85
BRANCH 79 90
ATOM     90   O  Z9L D   5      -5.922  13.603 -29.8770  0.00  0.00     0.000 O
ATOM     91   S  Z9L D   5      -4.569  14.400 -29.6150  0.00  0.00     0.000 S
ATOM     92   O  Z9L D   5      -3.543  14.526 -30.6170  0.00  0.00     0.000 OA
ATOM     93   O  Z9L D   5      -4.232  14.324 -28.2150  0.00  0.00     0.000 O
ATOM     94   O  Z9L D   5      -5.455  15.507 -29.7770  0.00  0.00     0.000 OA
ENDBRANCH 79 90
BRANCH 81 95
ATOM     95   C  Z9L D   5      -6.141   8.713 -28.4260  0.00  0.00     0.000 C
ATOM     96   S  Z9L D   5      -7.768   7.578 -28.2540  0.00  0.00     0.000 S
ATOM     97   O  Z9L D   5      -7.425   8.956 -28.9350  0.00  0.00     0.000 O
ATOM     98   O  Z9L D   5      -7.790   7.813 -26.8330  0.00  0.00     0.000 OA
ATOM     99   O  Z9L D   5      -7.123   6.436 -28.8070  0.00  0.00     0.000 OA
ATOM    100   O  Z9L D   5      -9.072   7.890 -28.7870  0.00  0.00     0.000 O
ENDBRANCH 81 95
ENDBRANCH 76 80
ENDBRANCH 60 76
ENDBRANCH 59 63
ENDBRANCH 37 59
ENDBRANCH 36 40
ENDBRANCH 23 36
ENDBRANCH 22 26
ENDBRANCH 1 22
TORSDOF 19
ENDMDL
MODEL 42
REMARK VINA RESULT:      -5.9     31.452     36.122
ROOT
ATOM      1  C1  Z9H D   1      -3.411  22.683 -21.3130  0.00  0.00     0.000 C
ATOM      2  C2  Z9H D   1      -4.222  22.891 -22.6140  0.00  0.00     0.000 C
ATOM      3  C3  Z9H D   1      -4.317  21.399 -23.0580  0.00  0.00     0.000 C
ATOM      4  C4  Z9H D   1      -2.944  20.608 -23.0780  0.00  0.00     0.000 C
ATOM      5  C5  Z9H D   1      -1.907  20.646 -21.8860  0.00  0.00     0.000 C
ATOM      6  O5  Z9H D   1      -2.144  21.968 -21.3410  0.00  0.00     0.000 O
ATOM      7   O  Z9H D   1      -4.986  21.265 -24.3130  0.00  0.00     0.000 O
ATOM      8   C  Z9H D   1      -6.376  20.907 -24.2350  0.00  0.00     0.000 C
ATOM      9   O  Z9H D   1      -3.289  19.236 -23.2950  0.00  0.00     0.000 O
ATOM     10   C  Z9H D   1      -3.154  18.770 -24.6410  0.00  0.00     0.000 C
ENDROOT
BRANCH 2 11
ATOM     11   O  Z9H D   1      -5.496  23.206 -22.1170  0.00  0.00     0.000 O
ATOM     12   O  Z9H D   1      -6.340  24.878 -22.3460  0.00  0.00     0.000 OA
ATOM     13   S  Z9H D   1      -5.069  24.529 -22.8860  0.00  0.00     0.000 S
ATOM     14   O  Z9H D   1      -5.091  24.259 -24.2950  0.00  0.00     0.000 OA
ATOM     15   O  Z9H D   1      -4.016  25.234 -22.1910  0.00  0.00     0.000 O
ENDBRANCH 2 11
BRANCH 5 16
ATOM     16   C  Z9H D   1      -0.363  20.128 -22.2720  0.00  0.00     0.000 C
ATOM     17   S  Z9H D   1       1.127  20.301 -23.6100  0.00  0.00     0.000 S
ATOM     18   O  Z9H D   1       0.084  21.307 -22.8980  0.00  0.00     0.000 O
ATOM     19   O  Z9H D   1       0.536  19.373 -24.5310  0.00  0.00     0.000 O
ATOM     20   O  Z9H D   1       2.163  19.948 -22.7040  0.00  0.00     0.000 OA
ATOM     21   O  Z9H D   1       1.506  21.525 -24.2530  0.00  0.00     0.000 OA
ENDBRANCH 5 16
BRANCH 1 22
ATOM     22  O4  GU1 D   2      -4.117  21.937 -20.2570  0.00  0.00     0.000 O
BRANCH 22 26
ATOM     23  C1  GU1 D   2      -4.760  21.647 -16.1980  0.00  0.00     0.000 C
ATOM     24  C2  GU1 D   2      -4.565  23.064 -16.7150  0.00  0.00     0.000 C
ATOM     25  C3  GU1 D   2      -4.725  23.075 -18.2080  0.00  0.00     0.000 C
ATOM     26  C4  GU1 D   2      -3.817  22.043 -18.8600  0.00  0.00     0.000 C
ATOM     27  C5  GU1 D   2      -4.016  20.676 -18.1980  0.00  0.00     0.000 C
ATOM     28  O5  GU1 D   2      -3.811  20.769 -16.7910  0.00  0.00     0.000 O
ATOM     29   O  GU1 D   2      -5.512  23.969 -16.1600  0.00  0.00     0.000 O
ATOM     30   C  GU1 D   2      -5.026  24.695 -15.0400  0.00  0.00     0.000 C
ATOM     31   C  GU1 D   2      -5.464  25.216 -19.0230  0.00  0.00     0.000 C
ATOM     32   O  GU1 D   2      -4.364  24.373 -18.6920  0.00  0.00     0.000 O
BRANCH 27 33
ATOM     33   C  GU1 D   2      -3.043  19.658 -18.7420  0.00  0.00     0.000 C
ATOM     34   O  GU1 D   2      -3.470  18.775 -19.4570  0.00  0.00     0.000 OA
ATOM     35   O  GU1 D   2      -1.855  19.728 -18.4690  0.00  0.00     0.000 O
ENDBRANCH 27 33
BRANCH 23 36
ATOM     36  O4  GU6 D   3      -4.418  21.324 -14.8360  0.00  0.00     0.000 O
BRANCH 36 40
ATOM     37  C1  GU6 D   3      -4.508  19.583 -11.1400  0.00  0.00     0.000 C
ATOM     38  C2  GU6 D   3      -5.845  19.554 -11.8700  0.00  0.00     0.000 C
ATOM     39  C3  GU6 D   3      -5.646  19.964 -13.3060  0.00  0.00     0.000 C
ATOM     40  C4  GU6 D   3      -4.337  20.510 -13.6830  0.00  0.00     0.000 C
ATOM     41  C5  GU6 D   3      -3.791  21.407 -12.5230  0.00  0.00     0.000 C
ATOM     42  O5  GU6 D   3      -3.990  20.903 -11.1970  0.00  0.00     0.000 O
BRANCH 38 43
ATOM     43   O  GU6 D   3      -6.416  18.261 -11.8130  0.00  0.00     0.000 O
ATOM     44   S  GU6 D   3      -7.309  18.021 -10.6030  0.00  0.00     0.000 S
ATOM     45   O  GU6 D   3      -6.456  17.688  -9.4490  0.00  0.00     0.000 OA
ATOM     46   O  GU6 D   3      -8.058  19.258 -10.3170  0.00  0.00     0.000 O
ATOM     47   O  GU6 D   3      -8.235  16.935 -10.9100  0.00  0.00     0.000 OA
ENDBRANCH 38 43
BRANCH 39 48
ATOM     48   O  GU6 D   3      -6.595  19.623 -14.2980  0.00  0.00     0.000 O
ATOM     49   S  GU6 D   3      -7.979  20.208 -14.5740  0.00  0.00     0.000 S
ATOM     50   O  GU6 D   3      -7.884  21.660 -14.7680  0.00  0.00     0.000 OA
ATOM     51   O  GU6 D   3      -8.386  19.532 -15.8130  0.00  0.00     0.000 OA
ATOM     52   O  GU6 D   3      -8.865  19.908 -13.4270  0.00  0.00     0.000 O
ENDBRANCH 39 48
BRANCH 41 53
ATOM     53   C  GU6 D   3      -3.068  22.724 -12.6040  0.00  0.00     0.000 C
ATOM     54   O  GU6 D   3      -1.772  22.219 -12.7980  0.00  0.00     0.000 O
ATOM     55   S  GU6 D   3      -0.566  23.167 -12.8380  0.00  0.00     0.000 S
ATOM     56   O  GU6 D   3      -0.437  23.754 -11.4840  0.00  0.00     0.000 O
ATOM     57   O  GU6 D   3       0.631  22.386 -13.1820  0.00  0.00     0.000 OA
ATOM     58   O  GU6 D   3      -0.861  24.211 -13.8450  0.00  0.00     0.000 OA
ENDBRANCH 41 53
BRANCH 37 59
ATOM     59  O4  Z9K D   4      -3.410  18.679 -11.3870  0.00  0.00     0.000 O
BRANCH 59 63
ATOM     60  C1  Z9K D   4      -1.308  15.774  -9.7780  0.00  0.00     0.000 C
ATOM     61  C2  Z9K D   4      -1.535  16.698  -8.5490  0.00  0.00     0.000 C
ATOM     62  C3  Z9K D   4      -2.536  17.771  -9.1600  0.00  0.00     0.000 C
ATOM     63  C4  Z9K D   4      -2.233  18.384 -10.5800  0.00  0.00     0.000 C
ATOM     64  C5  Z9K D   4      -1.396  17.510 -11.5270  0.00  0.00     0.000 C
ATOM     65  O5  Z9K D   4      -1.786  16.163 -11.1500  0.00  0.00     0.000 O
ATOM     66   O  Z9K D   4      -2.742  18.909  -8.3030  0.00  0.00     0.000 O
ATOM     67   C  Z9K D   4      -3.751  18.729  -7.3220  0.00  0.00     0.000 C
BRANCH 61 68
ATOM     68   O  Z9K D   4      -2.271  15.961  -7.6120  0.00  0.00     0.000 O
ATOM     69   O  Z9K D   4      -0.683  17.603  -6.4580  0.00  0.00     0.000 OA
ATOM     70   S  Z9K D   4      -0.888  16.231  -6.8140  0.00  0.00     0.000 S
ATOM     71   O  Z9K D   4       0.115  15.335  -7.3030  0.00  0.00     0.000 OA
ATOM     72   O  Z9K D   4      -1.683  15.564  -5.8340  0.00  0.00     0.000 OA
ENDBRANCH 61 68
BRANCH 64 73
ATOM     73   C  Z9K D   4      -1.584  17.954 -12.9930  0.00  0.00     0.000 C
ATOM     74   O  Z9K D   4      -0.977  18.963 -13.4550  0.00  0.00     0.000 O
ATOM     75   O  Z9K D   4      -2.337  17.331 -13.7820  0.00  0.00     0.000 OA
ENDBRANCH 64 73
BRANCH 60 76
ATOM     76  O4  Z9L D   5      -0.078  15.194 -10.2460  0.00  0.00     0.000 O
BRANCH 76 80
ATOM     77  C1  Z9L D   5       1.599  11.824 -11.5870  0.00  0.00     0.000 C
ATOM     78  C2  Z9L D   5       1.688  12.898 -12.7750  0.00  0.00     0.000 C
ATOM     79  C3  Z9L D   5       1.415  14.415 -12.0790  0.00  0.00     0.000 C
ATOM     80  C4  Z9L D   5       0.170  14.073 -11.0550  0.00  0.00     0.000 C
ATOM     81  C5  Z9L D   5      -0.035  12.859 -10.0140  0.00  0.00     0.000 C
ATOM     82  O5  Z9L D   5       0.436  11.676 -10.6750  0.00  0.00     0.000 O
ATOM     83   C  Z9L D   5       2.874  10.998  -9.6940  0.00  0.00     0.000 C
ATOM     84   C  Z9L D   5       2.874  10.998  -9.6940  0.00  0.00     0.000 C
BRANCH 78 85
ATOM     85   O  Z9L D   5       2.978  12.860 -13.2950  0.00  0.00     0.000 O
ATOM     86   O  Z9L D   5       3.446  12.216 -15.0490  0.00  0.00     0.000 OA
ATOM     87   S  Z9L D   5       2.111  12.374 -14.5580  0.00  0.00     0.000 S
ATOM     88   O  Z9L D   5       1.553  13.456 -15.3310  0.00  0.00     0.000 OA
ATOM     89   O  Z9L D   5       1.579  11.057 -14.4910  0.00  0.00     0.000 OA
ENDBRANCH 78 85
BRANCH 79 90
ATOM     90   O  Z9L D   5       0.828  15.291 -12.9870  0.00  0.00     0.000 O
ATOM     91   S  Z9L D   5       2.171  16.089 -12.6770  0.00  0.00     0.000 S
ATOM     92   O  Z9L D   5       3.473  15.505 -12.8590  0.00  0.00     0.000 OA
ATOM     93   O  Z9L D   5       1.927  17.044 -11.6250  0.00  0.00     0.000 O
ATOM     94   O  Z9L D   5       1.813  16.718 -13.9080  0.00  0.00     0.000 OA
ENDBRANCH 79 90
BRANCH 81 95
ATOM     95   C  Z9L D   5      -1.497  12.789  -9.1940  0.00  0.00     0.000 C
ATOM     96   S  Z9L D   5      -3.303  11.950  -9.1590  0.00  0.00     0.000 S
ATOM     97   O  Z9L D   5      -2.313  12.444 -10.2800  0.00  0.00     0.000 O
ATOM     98   O  Z9L D   5      -3.847  13.130  -8.5370  0.00  0.00     0.000 OA
ATOM     99   O  Z9L D   5      -2.857  10.842  -8.3830  0.00  0.00     0.000 OA
ATOM    100   O  Z9L D   5      -4.106  11.633 -10.3140  0.00  0.00     0.000 O
ENDBRANCH 81 95
ENDBRANCH 76 80
ENDBRANCH 60 76
ENDBRANCH 59 63
ENDBRANCH 37 59
ENDBRANCH 36 40
ENDBRANCH 23 36
ENDBRANCH 22 26
ENDBRANCH 1 22
TORSDOF 19
ENDMDL
MODEL 43
REMARK VINA RESULT:      -5.9     37.474     44.443
ROOT
ATOM      1  C1  Z9H D   1      11.226   3.442 -47.7070  0.00  0.00     0.000 C
ATOM      2  C2  Z9H D   1      12.169   2.460 -48.4420  0.00  0.00     0.000 C
ATOM      3  C3  Z9H D   1      11.846   1.180 -47.6110  0.00  0.00     0.000 C
ATOM      4  C4  Z9H D   1      11.924   1.353 -46.0380  0.00  0.00     0.000 C
ATOM      5  C5  Z9H D   1      11.251   2.557 -45.2670  0.00  0.00     0.000 C
ATOM      6  O5  Z9H D   1      11.312   3.607 -46.2640  0.00  0.00     0.000 O
ATOM      7   O  Z9H D   1      12.640   0.068 -48.0290  0.00  0.00     0.000 O
ATOM      8   C  Z9H D   1      11.994  -0.846 -48.9310  0.00  0.00     0.000 C
ATOM      9   O  Z9H D   1      11.388   0.145 -45.4870  0.00  0.00     0.000 O
ATOM     10   C  Z9H D   1      12.354  -0.820 -45.0600  0.00  0.00     0.000 C
ENDROOT
BRANCH 2 11
ATOM     11   O  Z9H D   1      11.506   2.279 -49.6660  0.00  0.00     0.000 O
ATOM     12   O  Z9H D   1      12.187   2.841 -51.3320  0.00  0.00     0.000 OA
ATOM     13   S  Z9H D   1      12.869   2.976 -50.0900  0.00  0.00     0.000 S
ATOM     14   O  Z9H D   1      13.934   2.031 -49.9080  0.00  0.00     0.000 OA
ATOM     15   O  Z9H D   1      12.909   4.362 -49.6840  0.00  0.00     0.000 O
ENDBRANCH 2 11
BRANCH 5 16
ATOM     16   C  Z9H D   1      11.811   2.802 -43.7090  0.00  0.00     0.000 C
ATOM     17   S  Z9H D   1      13.127   2.164 -42.3310  0.00  0.00     0.000 S
ATOM     18   O  Z9H D   1      13.149   2.423 -43.9240  0.00  0.00     0.000 O
ATOM     19   O  Z9H D   1      12.301   1.069 -41.9100  0.00  0.00     0.000 O
ATOM     20   O  Z9H D   1      13.201   3.399 -41.6320  0.00  0.00     0.000 OA
ATOM     21   O  Z9H D   1      14.468   1.744 -42.6180  0.00  0.00     0.000 OA
ENDBRANCH 5 16
BRANCH 1 22
ATOM     22  O4  GU1 D   2       9.789   3.150 -47.8580  0.00  0.00     0.000 O
BRANCH 22 26
ATOM     23  C1  GU1 D   2       6.007   4.722 -48.2990  0.00  0.00     0.000 C
ATOM     24  C2  GU1 D   2       7.063   5.332 -49.2080  0.00  0.00     0.000 C
ATOM     25  C3  GU1 D   2       8.271   4.441 -49.2340  0.00  0.00     0.000 C
ATOM     26  C4  GU1 D   2       8.759   4.145 -47.8230  0.00  0.00     0.000 C
ATOM     27  C5  GU1 D   2       7.598   3.636 -46.9630  0.00  0.00     0.000 C
ATOM     28  O5  GU1 D   2       6.519   4.566 -46.9810  0.00  0.00     0.000 O
ATOM     29   O  GU1 D   2       6.594   5.483 -50.5430  0.00  0.00     0.000 O
ATOM     30   C  GU1 D   2       6.105   6.784 -50.8360  0.00  0.00     0.000 C
ATOM     31   C  GU1 D   2       9.515   4.662 -51.2830  0.00  0.00     0.000 C
ATOM     32   O  GU1 D   2       9.314   5.115 -49.9460  0.00  0.00     0.000 O
BRANCH 27 33
ATOM     33   C  GU1 D   2       8.023   3.448 -45.5270  0.00  0.00     0.000 C
ATOM     34   O  GU1 D   2       7.953   2.336 -45.0440  0.00  0.00     0.000 OA
ATOM     35   O  GU1 D   2       8.432   4.393 -44.8710  0.00  0.00     0.000 O
ENDBRANCH 27 33
BRANCH 23 36
ATOM     36  O4  GU6 D   3       4.855   5.497 -47.9110  0.00  0.00     0.000 O
BRANCH 36 40
ATOM     37  C1  GU6 D   3       0.960   6.669 -48.2930  0.00  0.00     0.000 C
ATOM     38  C2  GU6 D   3       1.433   6.556 -46.8490  0.00  0.00     0.000 C
ATOM     39  C3  GU6 D   3       2.930   6.389 -46.8200  0.00  0.00     0.000 C
ATOM     40  C4  GU6 D   3       3.613   6.146 -48.0950  0.00  0.00     0.000 C
ATOM     41  C5  GU6 D   3       2.733   5.212 -48.9900  0.00  0.00     0.000 C
ATOM     42  O5  GU6 D   3       1.327   5.484 -48.9840  0.00  0.00     0.000 O
BRANCH 38 43
ATOM     43   O  GU6 D   3       1.060   7.704 -46.1120  0.00  0.00     0.000 O
ATOM     44   S  GU6 D   3       0.089   7.432 -44.9710  0.00  0.00     0.000 S
ATOM     45   O  GU6 D   3      -1.274   7.353 -45.5240  0.00  0.00     0.000 OA
ATOM     46   O  GU6 D   3       0.441   6.141 -44.3510  0.00  0.00     0.000 O
ATOM     47   O  GU6 D   3       0.204   8.506 -43.9890  0.00  0.00     0.000 OA
ENDBRANCH 38 43
BRANCH 39 48
ATOM     48   O  GU6 D   3       3.671   6.687 -45.6530  0.00  0.00     0.000 O
ATOM     49   S  GU6 D   3       4.561   7.888 -45.3360  0.00  0.00     0.000 S
ATOM     50   O  GU6 D   3       3.809   9.136 -45.5130  0.00  0.00     0.000 OA
ATOM     51   O  GU6 D   3       4.915   7.677 -43.9260  0.00  0.00     0.000 OA
ATOM     52   O  GU6 D   3       5.732   7.870 -46.2410  0.00  0.00     0.000 O
ENDBRANCH 39 48
BRANCH 41 53
ATOM     53   C  GU6 D   3       3.159   4.070 -49.8730  0.00  0.00     0.000 C
ATOM     54   O  GU6 D   3       3.306   4.796 -51.0660  0.00  0.00     0.000 O
ATOM     55   S  GU6 D   3       3.635   4.076 -52.3800  0.00  0.00     0.000 S
ATOM     56   O  GU6 D   3       2.463   3.232 -52.7100  0.00  0.00     0.000 O
ATOM     57   O  GU6 D   3       3.858   5.086 -53.4250  0.00  0.00     0.000 OA
ATOM     58   O  GU6 D   3       4.836   3.247 -52.1380  0.00  0.00     0.000 OA
ENDBRANCH 41 53
BRANCH 37 59
ATOM     59  O4  Z9K D   4       1.235   7.781 -49.1710  0.00  0.00     0.000 O
BRANCH 59 63
ATOM     60  C1  Z9K D   4      -0.539  11.212 -49.8940  0.00  0.00     0.000 C
ATOM     61  C2  Z9K D   4      -1.735  10.226 -50.0050  0.00  0.00     0.000 C
ATOM     62  C3  Z9K D   4      -1.051   8.870 -49.5320  0.00  0.00     0.000 C
ATOM     63  C4  Z9K D   4       0.365   8.483 -50.1050  0.00  0.00     0.000 C
ATOM     64  C5  Z9K D   4       1.250   9.652 -50.5630  0.00  0.00     0.000 C
ATOM     65  O5  Z9K D   4       0.863  10.722 -49.6600  0.00  0.00     0.000 O
ATOM     66   O  Z9K D   4      -1.872   7.710 -49.7600  0.00  0.00     0.000 O
ATOM     67   C  Z9K D   4      -2.805   7.440 -48.7270  0.00  0.00     0.000 C
BRANCH 61 68
ATOM     68   O  Z9K D   4      -2.650  10.575 -49.0030  0.00  0.00     0.000 O
ATOM     69   O  Z9K D   4      -3.844   9.629 -51.0600  0.00  0.00     0.000 OA
ATOM     70   S  Z9K D   4      -3.514  10.828 -50.3500  0.00  0.00     0.000 S
ATOM     71   O  Z9K D   4      -3.103  12.064 -50.9420  0.00  0.00     0.000 OA
ATOM     72   O  Z9K D   4      -4.467  11.089 -49.3200  0.00  0.00     0.000 OA
ENDBRANCH 61 68
BRANCH 64 73
ATOM     73   C  Z9K D   4       2.733   9.229 -50.6200  0.00  0.00     0.000 C
ATOM     74   O  Z9K D   4       3.571   9.662 -49.7770  0.00  0.00     0.000 O
ATOM     75   O  Z9K D   4       3.162   8.438 -51.4960  0.00  0.00     0.000 OA
ENDBRANCH 64 73
BRANCH 60 76
ATOM     76  O4  Z9L D   5      -0.146  12.247 -50.8110  0.00  0.00     0.000 O
BRANCH 76 80
ATOM     77  C1  Z9L D   5       1.129  16.020 -51.1430  0.00  0.00     0.000 C
ATOM     78  C2  Z9L D   5       2.337  15.074 -51.6090  0.00  0.00     0.000 C
ATOM     79  C3  Z9L D   5       1.670  13.549 -51.9090  0.00  0.00     0.000 C
ATOM     80  C4  Z9L D   5       0.641  13.396 -50.6320  0.00  0.00     0.000 C
ATOM     81  C5  Z9L D   5      -0.423  14.434 -50.0060  0.00  0.00     0.000 C
ATOM     82  O5  Z9L D   5       0.215  15.720 -50.0120  0.00  0.00     0.000 O
ATOM     83   C  Z9L D   5      -0.781  17.217 -52.0440  0.00  0.00     0.000 C
ATOM     84   C  Z9L D   5      -0.781  17.217 -52.0440  0.00  0.00     0.000 C
BRANCH 78 85
ATOM     85   O  Z9L D   5       2.855  15.587 -52.7950  0.00  0.00     0.000 O
ATOM     86   O  Z9L D   5       4.575  16.434 -52.9760  0.00  0.00     0.000 OA
ATOM     87   S  Z9L D   5       4.092  15.795 -51.7900  0.00  0.00     0.000 S
ATOM     88   O  Z9L D   5       4.917  14.623 -51.6340  0.00  0.00     0.000 OA
ATOM     89   O  Z9L D   5       3.960  16.836 -50.8300  0.00  0.00     0.000 OA
ENDBRANCH 78 85
BRANCH 79 90
ATOM     90   O  Z9L D   5       2.596  12.536 -51.6740  0.00  0.00     0.000 O
ATOM     91   S  Z9L D   5       2.277  12.255 -53.2090  0.00  0.00     0.000 S
ATOM     92   O  Z9L D   5       2.435  13.261 -54.2260  0.00  0.00     0.000 OA
ATOM     93   O  Z9L D   5       1.238  11.259 -53.3060  0.00  0.00     0.000 O
ATOM     94   O  Z9L D   5       3.519  11.559 -53.1060  0.00  0.00     0.000 OA
ENDBRANCH 79 90
BRANCH 81 95
ATOM     95   C  Z9L D   5      -1.243  13.955 -48.6230  0.00  0.00     0.000 C
ATOM     96   S  Z9L D   5      -2.605  14.490 -47.2720  0.00  0.00     0.000 S
ATOM     97   O  Z9L D   5      -1.473  15.228 -48.0820  0.00  0.00     0.000 O
ATOM     98   O  Z9L D   5      -1.945  13.685 -46.2770  0.00  0.00     0.000 OA
ATOM     99   O  Z9L D   5      -3.684  13.975 -48.0450  0.00  0.00     0.000 OA
ATOM    100   O  Z9L D   5      -2.784  15.818 -46.7390  0.00  0.00     0.000 O
ENDBRANCH 81 95
ENDBRANCH 76 80
ENDBRANCH 60 76
ENDBRANCH 59 63
ENDBRANCH 37 59
ENDBRANCH 36 40
ENDBRANCH 23 36
ENDBRANCH 22 26
ENDBRANCH 1 22
TORSDOF 19
ENDMDL
MODEL 44
REMARK VINA RESULT:      -5.9     19.686     26.318
ROOT
ATOM      1  C1  Z9H D   1      24.803  51.636 -13.9760  0.00  0.00     0.000 C
ATOM      2  C2  Z9H D   1      24.698  53.143 -14.3110  0.00  0.00     0.000 C
ATOM      3  C3  Z9H D   1      25.478  53.699 -13.0800  0.00  0.00     0.000 C
ATOM      4  C4  Z9H D   1      25.005  53.148 -11.6710  0.00  0.00     0.000 C
ATOM      5  C5  Z9H D   1      24.762  51.614 -11.3800  0.00  0.00     0.000 C
ATOM      6  O5  Z9H D   1      24.354  51.135 -12.6860  0.00  0.00     0.000 O
ATOM      7   O  Z9H D   1      25.501  55.128 -13.0730  0.00  0.00     0.000 O
ATOM      8   C  Z9H D   1      26.700  55.727 -13.5910  0.00  0.00     0.000 C
ATOM      9   O  Z9H D   1      25.977  53.609 -10.7270  0.00  0.00     0.000 O
ATOM     10   C  Z9H D   1      25.611  54.775  -9.9830  0.00  0.00     0.000 C
ENDROOT
BRANCH 2 11
ATOM     11   O  Z9H D   1      25.586  53.264 -15.3910  0.00  0.00     0.000 O
ATOM     12   O  Z9H D   1      25.057  53.661 -17.1580  0.00  0.00     0.000 OA
ATOM     13   S  Z9H D   1      24.173  53.582 -16.0440  0.00  0.00     0.000 S
ATOM     14   O  Z9H D   1      23.730  54.860 -15.5620  0.00  0.00     0.000 OA
ATOM     15   O  Z9H D   1      23.349  52.399 -16.1370  0.00  0.00     0.000 O
ENDBRANCH 2 11
BRANCH 5 16
ATOM     16   C  Z9H D   1      23.857  51.287 -10.0110  0.00  0.00     0.000 C
ATOM     17   S  Z9H D   1      22.012  51.370  -9.2180  0.00  0.00     0.000 S
ATOM     18   O  Z9H D   1      22.643  50.979 -10.6520  0.00  0.00     0.000 O
ATOM     19   O  Z9H D   1      22.121  52.758  -8.8700  0.00  0.00     0.000 O
ATOM     20   O  Z9H D   1      22.217  50.315  -8.2880  0.00  0.00     0.000 OA
ATOM     21   O  Z9H D   1      20.804  51.091  -9.9370  0.00  0.00     0.000 OA
ENDBRANCH 5 16
BRANCH 1 22
ATOM     22  O4  GU1 D   2      26.169  51.087 -14.0150  0.00  0.00     0.000 O
BRANCH 22 26
ATOM     23  C1  GU1 D   2      28.370  47.726 -14.9290  0.00  0.00     0.000 C
ATOM     24  C2  GU1 D   2      27.061  47.860 -15.6920  0.00  0.00     0.000 C
ATOM     25  C3  GU1 D   2      26.554  49.268 -15.5670  0.00  0.00     0.000 C
ATOM     26  C4  GU1 D   2      26.472  49.689 -14.1070  0.00  0.00     0.000 C
ATOM     27  C5  GU1 D   2      27.807  49.418 -13.4070  0.00  0.00     0.000 C
ATOM     28  O5  GU1 D   2      28.179  48.050 -13.5570  0.00  0.00     0.000 O
ATOM     29   O  GU1 D   2      27.217  47.565 -17.0740  0.00  0.00     0.000 O
ATOM     30   C  GU1 D   2      26.867  46.232 -17.4210  0.00  0.00     0.000 C
ATOM     31   C  GU1 D   2      25.181  49.905 -17.4380  0.00  0.00     0.000 C
ATOM     32   O  GU1 D   2      25.242  49.329 -16.1360  0.00  0.00     0.000 O
BRANCH 27 33
ATOM     33   C  GU1 D   2      27.718  49.713 -11.9280  0.00  0.00     0.000 C
ATOM     34   O  GU1 D   2      27.090  48.951 -11.2240  0.00  0.00     0.000 OA
ATOM     35   O  GU1 D   2      28.271  50.695 -11.4580  0.00  0.00     0.000 O
ENDBRANCH 27 33
BRANCH 23 36
ATOM     36  O4  GU6 D   3      28.933  46.422 -14.6880  0.00  0.00     0.000 O
BRANCH 36 40
ATOM     37  C1  GU6 D   3      29.761  42.754 -13.0890  0.00  0.00     0.000 C
ATOM     38  C2  GU6 D   3      30.834  43.271 -14.0400  0.00  0.00     0.000 C
ATOM     39  C3  GU6 D   3      30.573  44.720 -14.3560  0.00  0.00     0.000 C
ATOM     40  C4  GU6 D   3      29.296  45.294 -13.9170  0.00  0.00     0.000 C
ATOM     41  C5  GU6 D   3      28.160  44.233 -14.0900  0.00  0.00     0.000 C
ATOM     42  O5  GU6 D   3      28.496  42.892 -13.7160  0.00  0.00     0.000 O
BRANCH 38 43
ATOM     43   O  GU6 D   3      32.119  43.125 -13.4670  0.00  0.00     0.000 O
ATOM     44   S  GU6 D   3      32.857  41.862 -13.8910  0.00  0.00     0.000 S
ATOM     45   O  GU6 D   3      32.372  40.738 -13.0710  0.00  0.00     0.000 OA
ATOM     46   O  GU6 D   3      32.559  41.597 -15.3110  0.00  0.00     0.000 O
ATOM     47   O  GU6 D   3      34.290  42.071 -13.7120  0.00  0.00     0.000 OA
ENDBRANCH 38 43
BRANCH 39 48
ATOM     48   O  GU6 D   3      31.606  45.555 -14.8440  0.00  0.00     0.000 O
ATOM     49   S  GU6 D   3      32.109  45.759 -16.2720  0.00  0.00     0.000 S
ATOM     50   O  GU6 D   3      30.999  46.150 -17.1480  0.00  0.00     0.000 OA
ATOM     51   O  GU6 D   3      33.083  46.850 -16.1290  0.00  0.00     0.000 OA
ATOM     52   O  GU6 D   3      32.714  44.496 -16.7530  0.00  0.00     0.000 O
ENDBRANCH 39 48
BRANCH 41 53
ATOM     53   C  GU6 D   3      26.750  44.425 -14.5800  0.00  0.00     0.000 C
ATOM     54   O  GU6 D   3      26.228  45.033 -13.4280  0.00  0.00     0.000 O
ATOM     55   S  GU6 D   3      24.732  45.359 -13.3290  0.00  0.00     0.000 S
ATOM     56   O  GU6 D   3      24.012  44.064 -13.3120  0.00  0.00     0.000 O
ATOM     57   O  GU6 D   3      24.495  46.101 -12.0830  0.00  0.00     0.000 OA
ATOM     58   O  GU6 D   3      24.375  46.150 -14.5280  0.00  0.00     0.000 OA
ENDBRANCH 41 53
BRANCH 37 59
ATOM     59  O4  Z9K D   4      29.606  43.165 -11.7140  0.00  0.00     0.000 O
BRANCH 59 63
ATOM     60  C1  Z9K D   4      29.926  42.054  -7.9580  0.00  0.00     0.000 C
ATOM     61  C2  Z9K D   4      29.450  40.733  -8.6230  0.00  0.00     0.000 C
ATOM     62  C3  Z9K D   4      29.500  41.135 -10.1610  0.00  0.00     0.000 C
ATOM     63  C4  Z9K D   4      28.902  42.522 -10.6120  0.00  0.00     0.000 C
ATOM     64  C5  Z9K D   4      28.884  43.627  -9.5450  0.00  0.00     0.000 C
ATOM     65  O5  Z9K D   4      30.060  43.326  -8.7490  0.00  0.00     0.000 O
ATOM     66   O  Z9K D   4      28.875  40.166 -11.0220  0.00  0.00     0.000 O
ATOM     67   C  Z9K D   4      29.722  39.099 -11.4150  0.00  0.00     0.000 C
BRANCH 61 68
ATOM     68   O  Z9K D   4      30.465  39.786  -8.4300  0.00  0.00     0.000 O
ATOM     69   O  Z9K D   4      28.156  38.682  -8.4270  0.00  0.00     0.000 OA
ATOM     70   S  Z9K D   4      29.236  39.133  -7.6020  0.00  0.00     0.000 S
ATOM     71   O  Z9K D   4      29.104  39.814  -6.3500  0.00  0.00     0.000 OA
ATOM     72   O  Z9K D   4      30.247  38.131  -7.4930  0.00  0.00     0.000 OA
ENDBRANCH 61 68
BRANCH 64 73
ATOM     73   C  Z9K D   4      28.767  45.020 -10.1990  0.00  0.00     0.000 C
ATOM     74   O  Z9K D   4      27.656  45.454 -10.6220  0.00  0.00     0.000 O
ATOM     75   O  Z9K D   4      29.761  45.774 -10.3300  0.00  0.00     0.000 OA
ENDBRANCH 64 73
BRANCH 60 76
ATOM     76  O4  Z9L D   5      29.406  42.703  -6.7850  0.00  0.00     0.000 O
BRANCH 76 80
ATOM     77  C1  Z9L D   5      30.535  44.746  -3.5410  0.00  0.00     0.000 C
ATOM     78  C2  Z9L D   5      29.491  45.668  -4.3370  0.00  0.00     0.000 C
ATOM     79  C3  Z9L D   5      28.680  44.656  -5.4230  0.00  0.00     0.000 C
ATOM     80  C4  Z9L D   5      29.925  43.738  -5.9900  0.00  0.00     0.000 C
ATOM     81  C5  Z9L D   5      31.123  42.990  -5.2110  0.00  0.00     0.000 C
ATOM     82  O5  Z9L D   5      31.565  43.893  -4.1870  0.00  0.00     0.000 O
ATOM     83   C  Z9L D   5      30.612  43.075  -1.7820  0.00  0.00     0.000 C
ATOM     84   C  Z9L D   5      30.612  43.075  -1.7820  0.00  0.00     0.000 C
BRANCH 78 85
ATOM     85   O  Z9L D   5      28.578  46.178  -3.4200  0.00  0.00     0.000 O
ATOM     86   O  Z9L D   5      28.446  48.028  -2.9010  0.00  0.00     0.000 OA
ATOM     87   S  Z9L D   5      29.297  47.520  -3.9330  0.00  0.00     0.000 S
ATOM     88   O  Z9L D   5      28.747  48.041  -5.1610  0.00  0.00     0.000 OA
ATOM     89   O  Z9L D   5      30.623  47.745  -3.4710  0.00  0.00     0.000 OA
ENDBRANCH 78 85
BRANCH 79 90
ATOM     90   O  Z9L D   5      28.275  45.352  -6.5590  0.00  0.00     0.000 O
ATOM     91   S  Z9L D   5      26.872  44.759  -6.0960  0.00  0.00     0.000 S
ATOM     92   O  Z9L D   5      26.333  44.993  -4.7820  0.00  0.00     0.000 OA
ATOM     93   O  Z9L D   5      26.625  43.519  -6.7880  0.00  0.00     0.000 O
ATOM     94   O  Z9L D   5      26.405  45.812  -6.9380  0.00  0.00     0.000 OA
ENDBRANCH 79 90
BRANCH 81 95
ATOM     95   C  Z9L D   5      32.279  42.212  -6.1440  0.00  0.00     0.000 C
ATOM     96   S  Z9L D   5      34.096  42.367  -6.9460  0.00  0.00     0.000 S
ATOM     97   O  Z9L D   5      32.895  43.351  -6.6820  0.00  0.00     0.000 O
ATOM     98   O  Z9L D   5      33.698  41.510  -8.0330  0.00  0.00     0.000 OA
ATOM     99   O  Z9L D   5      34.735  41.845  -5.7850  0.00  0.00     0.000 OA
ATOM    100   O  Z9L D   5      34.671  43.568  -7.5000  0.00  0.00     0.000 O
ENDBRANCH 81 95
ENDBRANCH 76 80
ENDBRANCH 60 76
ENDBRANCH 59 63
ENDBRANCH 37 59
ENDBRANCH 36 40
ENDBRANCH 23 36
ENDBRANCH 22 26
ENDBRANCH 1 22
TORSDOF 19
ENDMDL
MODEL 45
REMARK VINA RESULT:      -5.9     29.775     35.124
ROOT
ATOM      1  C1  Z9H D   1      12.109  42.823 -33.9750  0.00  0.00     0.000 C
ATOM      2  C2  Z9H D   1      12.659  43.015 -35.4080  0.00  0.00     0.000 C
ATOM      3  C3  Z9H D   1      11.325  42.798 -36.1880  0.00  0.00     0.000 C
ATOM      4  C4  Z9H D   1      10.517  41.491 -35.7990  0.00  0.00     0.000 C
ATOM      5  C5  Z9H D   1      10.225  41.068 -34.3050  0.00  0.00     0.000 C
ATOM      6  O5  Z9H D   1      11.380  41.615 -33.6210  0.00  0.00     0.000 O
ATOM      7   O  Z9H D   1      11.527  42.856 -37.6010  0.00  0.00     0.000 O
ATOM      8   C  Z9H D   1      11.209  44.115 -38.2170  0.00  0.00     0.000 C
ATOM      9   O  Z9H D   1       9.253  41.606 -36.4610  0.00  0.00     0.000 O
ATOM     10   C  Z9H D   1       9.128  40.875 -37.6850  0.00  0.00     0.000 C
ENDROOT
BRANCH 2 11
ATOM     11   O  Z9H D   1      12.886  44.400 -35.4510  0.00  0.00     0.000 O
ATOM     12   O  Z9H D   1      14.590  45.189 -35.6230  0.00  0.00     0.000 OA
ATOM     13   S  Z9H D   1      14.341  43.787 -35.6260  0.00  0.00     0.000 S
ATOM     14   O  Z9H D   1      14.424  43.186 -36.9270  0.00  0.00     0.000 OA
ATOM     15   O  Z9H D   1      14.818  43.187 -34.4010  0.00  0.00     0.000 O
ENDBRANCH 2 11
BRANCH 5 16
ATOM     16   C  Z9H D   1       9.765  39.473 -34.0970  0.00  0.00     0.000 C
ATOM     17   S  Z9H D   1       9.404  37.743 -35.0540  0.00  0.00     0.000 S
ATOM     18   O  Z9H D   1      10.503  38.920 -35.1600  0.00  0.00     0.000 O
ATOM     19   O  Z9H D   1       8.075  38.123 -35.4400  0.00  0.00     0.000 O
ATOM     20   O  Z9H D   1       9.683  36.910 -33.9370  0.00  0.00     0.000 OA
ATOM     21   O  Z9H D   1      10.165  37.253 -36.1660  0.00  0.00     0.000 OA
ENDBRANCH 5 16
BRANCH 1 22
ATOM     22  O4  GU1 D   2      11.151  43.853 -33.5360  0.00  0.00     0.000 O
BRANCH 22 26
ATOM     23  C1  GU1 D   2       9.920  46.143 -30.3400  0.00  0.00     0.000 C
ATOM     24  C2  GU1 D   2      11.405  45.814 -30.3570  0.00  0.00     0.000 C
ATOM     25  C3  GU1 D   2      11.791  45.326 -31.7240  0.00  0.00     0.000 C
ATOM     26  C4  GU1 D   2      10.893  44.179 -32.1650  0.00  0.00     0.000 C
ATOM     27  C5  GU1 D   2       9.422  44.576 -32.0110  0.00  0.00     0.000 C
ATOM     28  O5  GU1 D   2       9.154  44.991 -30.6750  0.00  0.00     0.000 O
ATOM     29   O  GU1 D   2      12.204  46.950 -30.0490  0.00  0.00     0.000 O
ATOM     30   C  GU1 D   2      12.602  47.020 -28.6870  0.00  0.00     0.000 C
ATOM     31   C  GU1 D   2      14.108  45.751 -32.2150  0.00  0.00     0.000 C
ATOM     32   O  GU1 D   2      13.141  44.856 -31.6710  0.00  0.00     0.000 O
BRANCH 27 33
ATOM     33   C  GU1 D   2       8.508  43.416 -32.3270  0.00  0.00     0.000 C
ATOM     34   O  GU1 D   2       7.859  43.454 -33.3530  0.00  0.00     0.000 OA
ATOM     35   O  GU1 D   2       8.429  42.463 -31.5680  0.00  0.00     0.000 O
ENDBRANCH 27 33
BRANCH 23 36
ATOM     36  O4  GU6 D   3       9.251  46.396 -29.0890  0.00  0.00     0.000 O
BRANCH 36 40
ATOM     37  C1  GU6 D   3       7.342  45.710 -25.5420  0.00  0.00     0.000 C
ATOM     38  C2  GU6 D   3       7.570  47.186 -25.8470  0.00  0.00     0.000 C
ATOM     39  C3  GU6 D   3       8.023  47.342 -27.2750  0.00  0.00     0.000 C
ATOM     40  C4  GU6 D   3       8.372  46.125 -28.0160  0.00  0.00     0.000 C
ATOM     41  C5  GU6 D   3       9.102  45.123 -27.0620  0.00  0.00     0.000 C
ATOM     42  O5  GU6 D   3       8.562  45.014 -25.7400  0.00  0.00     0.000 O
BRANCH 38 43
ATOM     43   O  GU6 D   3       6.385  47.927 -25.6320  0.00  0.00     0.000 O
ATOM     44   S  GU6 D   3       6.341  48.674 -24.3060  0.00  0.00     0.000 S
ATOM     45   O  GU6 D   3       5.933  47.730 -23.2510  0.00  0.00     0.000 OA
ATOM     46   O  GU6 D   3       7.690  49.187 -24.0090  0.00  0.00     0.000 O
ATOM     47   O  GU6 D   3       5.398  49.783 -24.4210  0.00  0.00     0.000 OA
ENDBRANCH 38 43
BRANCH 39 48
ATOM     48   O  GU6 D   3       7.896  48.581 -27.9460  0.00  0.00     0.000 O
ATOM     49   S  GU6 D   3       8.827  49.793 -27.9530  0.00  0.00     0.000 S
ATOM     50   O  GU6 D   3      10.176  49.391 -28.3670  0.00  0.00     0.000 OA
ATOM     51   O  GU6 D   3       8.209  50.681 -28.9480  0.00  0.00     0.000 OA
ATOM     52   O  GU6 D   3       8.866  50.376 -26.5940  0.00  0.00     0.000 O
ENDBRANCH 39 48
BRANCH 41 53
ATOM     53   C  GU6 D   3      10.288  44.241 -27.3440  0.00  0.00     0.000 C
ATOM     54   O  GU6 D   3       9.583  43.103 -27.7690  0.00  0.00     0.000 O
ATOM     55   S  GU6 D   3      10.329  41.801 -28.0910  0.00  0.00     0.000 S
ATOM     56   O  GU6 D   3      10.905  41.313 -26.8170  0.00  0.00     0.000 O
ATOM     57   O  GU6 D   3       9.365  40.831 -28.6310  0.00  0.00     0.000 OA
ATOM     58   O  GU6 D   3      11.394  42.134 -29.0640  0.00  0.00     0.000 OA
ENDBRANCH 41 53
BRANCH 37 59
ATOM     59  O4  Z9K D   4       6.289  44.901 -26.1070  0.00  0.00     0.000 O
BRANCH 59 63
ATOM     60  C1  Z9K D   4       3.096  42.888 -25.0110  0.00  0.00     0.000 C
ATOM     61  C2  Z9K D   4       4.093  42.509 -23.8810  0.00  0.00     0.000 C
ATOM     62  C3  Z9K D   4       5.316  43.466 -24.2250  0.00  0.00     0.000 C
ATOM     63  C4  Z9K D   4       5.802  43.583 -25.7200  0.00  0.00     0.000 C
ATOM     64  C5  Z9K D   4       4.746  43.293 -26.7980  0.00  0.00     0.000 C
ATOM     65  O5  Z9K D   4       3.516  43.746 -26.1730  0.00  0.00     0.000 O
ATOM     66   O  Z9K D   4       6.505  43.162 -23.4730  0.00  0.00     0.000 O
ATOM     67   C  Z9K D   4       6.562  43.776 -22.1960  0.00  0.00     0.000 C
BRANCH 61 68
ATOM     68   O  Z9K D   4       3.551  42.981 -22.6780  0.00  0.00     0.000 O
ATOM     69   O  Z9K D   4       4.874  40.822 -22.3130  0.00  0.00     0.000 OA
ATOM     70   S  Z9K D   4       3.561  41.380 -22.4360  0.00  0.00     0.000 S
ATOM     71   O  Z9K D   4       2.466  40.794 -23.1460  0.00  0.00     0.000 OA
ATOM     72   O  Z9K D   4       3.100  41.878 -21.1800  0.00  0.00     0.000 OA
ENDBRANCH 61 68
BRANCH 64 73
ATOM     73   C  Z9K D   4       5.160  43.908 -28.1520  0.00  0.00     0.000 C
ATOM     74   O  Z9K D   4       6.113  43.422 -28.8280  0.00  0.00     0.000 O
ATOM     75   O  Z9K D   4       4.568  44.903 -28.6350  0.00  0.00     0.000 OA
ENDBRANCH 64 73
BRANCH 60 76
ATOM     76  O4  Z9L D   5       2.270  42.019 -25.8040  0.00  0.00     0.000 O
BRANCH 76 80
ATOM     77  C1  Z9L D   5      -1.149  41.803 -27.8620  0.00  0.00     0.000 C
ATOM     78  C2  Z9L D   5       0.044  41.572 -28.9080  0.00  0.00     0.000 C
ATOM     79  C3  Z9L D   5       1.423  41.206 -27.9990  0.00  0.00     0.000 C
ATOM     80  C4  Z9L D   5       1.291  42.297 -26.7710  0.00  0.00     0.000 C
ATOM     81  C5  Z9L D   5       0.027  42.706 -25.8570  0.00  0.00     0.000 C
ATOM     82  O5  Z9L D   5      -1.104  42.773 -26.7380  0.00  0.00     0.000 O
ATOM     83   C  Z9L D   5      -2.643  40.563 -26.4060  0.00  0.00     0.000 C
ATOM     84   C  Z9L D   5      -2.643  40.563 -26.4060  0.00  0.00     0.000 C
BRANCH 78 85
ATOM     85   O  Z9L D   5      -0.283  40.477 -29.7020  0.00  0.00     0.000 O
ATOM     86   O  Z9L D   5      -0.747  40.562 -31.5690  0.00  0.00     0.000 OA
ATOM     87   S  Z9L D   5      -0.289  41.666 -30.7820  0.00  0.00     0.000 S
ATOM     88   O  Z9L D   5       1.016  41.983 -31.3060  0.00  0.00     0.000 OA
ATOM     89   O  Z9L D   5      -1.389  42.567 -30.7260  0.00  0.00     0.000 OA
ENDBRANCH 78 85
BRANCH 79 90
ATOM     90   O  Z9L D   5       2.583  41.620 -28.6480  0.00  0.00     0.000 O
ATOM     91   S  Z9L D   5       2.924  40.077 -28.4510  0.00  0.00     0.000 S
ATOM     92   O  Z9L D   5       2.066  39.030 -28.9400  0.00  0.00     0.000 OA
ATOM     93   O  Z9L D   5       3.684  39.907 -27.2380  0.00  0.00     0.000 O
ATOM     94   O  Z9L D   5       3.853  40.383 -29.4910  0.00  0.00     0.000 OA
ENDBRANCH 79 90
BRANCH 81 95
ATOM     95   C  Z9L D   5       0.250  43.945 -24.7480  0.00  0.00     0.000 C
ATOM     96   S  Z9L D   5      -0.023  45.887 -24.4020  0.00  0.00     0.000 S
ATOM     97   O  Z9L D   5       0.339  45.008 -25.6580  0.00  0.00     0.000 O
ATOM     98   O  Z9L D   5       1.146  45.909 -23.5610  0.00  0.00     0.000 OA
ATOM     99   O  Z9L D   5      -1.324  45.685 -23.8590  0.00  0.00     0.000 OA
ATOM    100   O  Z9L D   5       0.099  46.941 -25.3790  0.00  0.00     0.000 O
ENDBRANCH 81 95
ENDBRANCH 76 80
ENDBRANCH 60 76
ENDBRANCH 59 63
ENDBRANCH 37 59
ENDBRANCH 36 40
ENDBRANCH 23 36
ENDBRANCH 22 26
ENDBRANCH 1 22
TORSDOF 19
ENDMDL
MODEL 46
REMARK VINA RESULT:      -5.9     29.609     35.573
ROOT
ATOM      1  C1  Z9H D   1      12.667  42.678 -34.2420  0.00  0.00     0.000 C
ATOM      2  C2  Z9H D   1      13.250  42.766 -35.6730  0.00  0.00     0.000 C
ATOM      3  C3  Z9H D   1      11.912  42.647 -36.4660  0.00  0.00     0.000 C
ATOM      4  C4  Z9H D   1      10.979  41.437 -36.0450  0.00  0.00     0.000 C
ATOM      5  C5  Z9H D   1      10.629  41.097 -34.5420  0.00  0.00     0.000 C
ATOM      6  O5  Z9H D   1      11.822  41.558 -33.8580  0.00  0.00     0.000 O
ATOM      7   O  Z9H D   1      12.136  42.635 -37.8770  0.00  0.00     0.000 O
ATOM      8   C  Z9H D   1      11.947  43.895 -38.5410  0.00  0.00     0.000 C
ATOM      9   O  Z9H D   1       9.740  41.646 -36.7300  0.00  0.00     0.000 O
ATOM     10   C  Z9H D   1       9.562  40.887 -37.9300  0.00  0.00     0.000 C
ENDROOT
BRANCH 2 11
ATOM     11   O  Z9H D   1      13.607  44.121 -35.7600  0.00  0.00     0.000 O
ATOM     12   O  Z9H D   1      15.376  44.738 -35.9760  0.00  0.00     0.000 OA
ATOM     13   S  Z9H D   1      14.995  43.367 -35.9340  0.00  0.00     0.000 S
ATOM     14   O  Z9H D   1      15.001  42.724 -37.2170  0.00  0.00     0.000 OA
ATOM     15   O  Z9H D   1      15.431  42.760 -34.6980  0.00  0.00     0.000 O
ENDBRANCH 2 11
BRANCH 5 16
ATOM     16   C  Z9H D   1      10.018  39.561 -34.2860  0.00  0.00     0.000 C
ATOM     17   S  Z9H D   1       9.513  37.837 -35.1880  0.00  0.00     0.000 S
ATOM     18   O  Z9H D   1      10.720  38.902 -35.3120  0.00  0.00     0.000 O
ATOM     19   O  Z9H D   1       8.233  38.324 -35.6150  0.00  0.00     0.000 O
ATOM     20   O  Z9H D   1       9.693  37.024 -34.0360  0.00  0.00     0.000 OA
ATOM     21   O  Z9H D   1      10.245  37.237 -36.2650  0.00  0.00     0.000 OA
ENDBRANCH 5 16
BRANCH 1 22
ATOM     22  O4  GU1 D   2      11.804  43.809 -33.8550  0.00  0.00     0.000 O
BRANCH 22 26
ATOM     23  C1  GU1 D   2      10.805  46.350 -30.7700  0.00  0.00     0.000 C
ATOM     24  C2  GU1 D   2      12.248  45.868 -30.7600  0.00  0.00     0.000 C
ATOM     25  C3  GU1 D   2      12.587  45.284 -32.1010  0.00  0.00     0.000 C
ATOM     26  C4  GU1 D   2      11.576  44.219 -32.5010  0.00  0.00     0.000 C
ATOM     27  C5  GU1 D   2      10.153  44.773 -32.3780  0.00  0.00     0.000 C
ATOM     28  O5  GU1 D   2       9.925  45.271 -31.0620  0.00  0.00     0.000 O
ATOM     29   O  GU1 D   2      13.160  46.926 -30.4930  0.00  0.00     0.000 O
ATOM     30   C  GU1 D   2      13.557  47.012 -29.1310  0.00  0.00     0.000 C
ATOM     31   C  GU1 D   2      14.938  45.443 -32.5890  0.00  0.00     0.000 C
ATOM     32   O  GU1 D   2      13.880  44.678 -32.0160  0.00  0.00     0.000 O
BRANCH 27 33
ATOM     33   C  GU1 D   2       9.124  43.702 -32.6530  0.00  0.00     0.000 C
ATOM     34   O  GU1 D   2       9.007  42.795 -31.8540  0.00  0.00     0.000 OA
ATOM     35   O  GU1 D   2       8.426  43.754 -33.6530  0.00  0.00     0.000 O
ENDBRANCH 27 33
BRANCH 23 36
ATOM     36  O4  GU6 D   3      10.162  46.725 -29.5360  0.00  0.00     0.000 O
BRANCH 36 40
ATOM     37  C1  GU6 D   3       7.959  46.560 -26.0990  0.00  0.00     0.000 C
ATOM     38  C2  GU6 D   3       8.420  47.964 -26.4710  0.00  0.00     0.000 C
ATOM     39  C3  GU6 D   3       8.978  47.957 -27.8710  0.00  0.00     0.000 C
ATOM     40  C4  GU6 D   3       9.188  46.656 -28.5150  0.00  0.00     0.000 C
ATOM     41  C5  GU6 D   3       9.702  45.625 -27.4560  0.00  0.00     0.000 C
ATOM     42  O5  GU6 D   3       9.073  45.684 -26.1710  0.00  0.00     0.000 O
BRANCH 38 43
ATOM     43   O  GU6 D   3       7.346  48.880 -26.3840  0.00  0.00     0.000 O
ATOM     44   S  GU6 D   3       7.243  49.602 -25.0470  0.00  0.00     0.000 S
ATOM     45   O  GU6 D   3       6.557  48.718 -24.0890  0.00  0.00     0.000 OA
ATOM     46   O  GU6 D   3       8.604  49.889 -24.5600  0.00  0.00     0.000 O
ATOM     47   O  GU6 D   3       6.508  50.848 -25.2410  0.00  0.00     0.000 OA
ENDBRANCH 38 43
BRANCH 39 48
ATOM     48   O  GU6 D   3       9.076  49.154 -28.6190  0.00  0.00     0.000 O
ATOM     49   S  GU6 D   3      10.128  50.260 -28.5660  0.00  0.00     0.000 S
ATOM     50   O  GU6 D   3      11.467  49.695 -28.7700  0.00  0.00     0.000 OA
ATOM     51   O  GU6 D   3       9.746  51.137 -29.6820  0.00  0.00     0.000 OA
ATOM     52   O  GU6 D   3      10.056  50.928 -27.2480  0.00  0.00     0.000 O
ENDBRANCH 39 48
BRANCH 41 53
ATOM     53   C  GU6 D   3      10.760  44.565 -27.6020  0.00  0.00     0.000 C
ATOM     54   O  GU6 D   3       9.906  43.470 -27.8070  0.00  0.00     0.000 O
ATOM     55   S  GU6 D   3      10.474  42.048 -27.9100  0.00  0.00     0.000 S
ATOM     56   O  GU6 D   3      11.040  41.717 -26.5820  0.00  0.00     0.000 O
ATOM     57   O  GU6 D   3       9.378  41.130 -28.2530  0.00  0.00     0.000 OA
ATOM     58   O  GU6 D   3      11.530  42.072 -28.9470  0.00  0.00     0.000 OA
ENDBRANCH 41 53
BRANCH 37 59
ATOM     59  O4  Z9K D   4       6.834  45.874 -26.6890  0.00  0.00     0.000 O
BRANCH 59 63
ATOM     60  C1  Z9K D   4       4.628  44.937 -23.5740  0.00  0.00     0.000 C
ATOM     61  C2  Z9K D   4       5.502  43.661 -23.7190  0.00  0.00     0.000 C
ATOM     62  C3  Z9K D   4       6.514  44.116 -24.8580  0.00  0.00     0.000 C
ATOM     63  C4  Z9K D   4       5.954  44.855 -26.1330  0.00  0.00     0.000 C
ATOM     64  C5  Z9K D   4       4.638  45.625 -25.9420  0.00  0.00     0.000 C
ATOM     65  O5  Z9K D   4       4.721  46.068 -24.5620  0.00  0.00     0.000 O
ATOM     66   O  Z9K D   4       7.309  43.035 -25.3770  0.00  0.00     0.000 O
ATOM     67   C  Z9K D   4       8.485  42.763 -24.6320  0.00  0.00     0.000 C
BRANCH 61 68
ATOM     68   O  Z9K D   4       6.257  43.545 -22.5440  0.00  0.00     0.000 O
ATOM     69   O  Z9K D   4       5.688  41.244 -23.5110  0.00  0.00     0.000 OA
ATOM     70   S  Z9K D   4       5.355  42.200 -22.4970  0.00  0.00     0.000 S
ATOM     71   O  Z9K D   4       4.033  42.541 -22.0700  0.00  0.00     0.000 OA
ATOM     72   O  Z9K D   4       6.198  42.045 -21.3550  0.00  0.00     0.000 OA
ENDBRANCH 61 68
BRANCH 64 73
ATOM     73   C  Z9K D   4       4.456  46.683 -27.0510  0.00  0.00     0.000 C
ATOM     74   O  Z9K D   4       4.419  46.353 -28.2720  0.00  0.00     0.000 O
ATOM     75   O  Z9K D   4       4.331  47.904 -26.7870  0.00  0.00     0.000 OA
ENDBRANCH 64 73
BRANCH 60 76
ATOM     76  O4  Z9L D   5       3.200  45.032 -23.4280  0.00  0.00     0.000 O
BRANCH 76 80
ATOM     77  C1  Z9L D   5       0.257  47.204 -21.8190  0.00  0.00     0.000 C
ATOM     78  C2  Z9L D   5       0.065  47.259 -23.4110  0.00  0.00     0.000 C
ATOM     79  C3  Z9L D   5       0.995  46.002 -24.0550  0.00  0.00     0.000 C
ATOM     80  C4  Z9L D   5       2.367  46.128 -23.1510  0.00  0.00     0.000 C
ATOM     81  C5  Z9L D   5       2.569  46.306 -21.5610  0.00  0.00     0.000 C
ATOM     82  O5  Z9L D   5       1.571  47.244 -21.1300  0.00  0.00     0.000 O
ATOM     83   C  Z9L D   5      -0.441  45.920 -19.8810  0.00  0.00     0.000 C
ATOM     84   C  Z9L D   5      -0.441  45.920 -19.8810  0.00  0.00     0.000 C
BRANCH 78 85
ATOM     85   O  Z9L D   5      -1.278  47.024 -23.6920  0.00  0.00     0.000 O
ATOM     86   O  Z9L D   5      -2.510  48.336 -24.3780  0.00  0.00     0.000 OA
ATOM     87   S  Z9L D   5      -1.104  48.537 -24.2060  0.00  0.00     0.000 S
ATOM     88   O  Z9L D   5      -0.574  48.640 -25.5430  0.00  0.00     0.000 OA
ATOM     89   O  Z9L D   5      -0.989  49.538 -23.2010  0.00  0.00     0.000 OA
ENDBRANCH 78 85
BRANCH 79 90
ATOM     90   O  Z9L D   5       1.447  46.310 -25.3350  0.00  0.00     0.000 O
ATOM     91   S  Z9L D   5       0.686  44.945 -25.6420  0.00  0.00     0.000 S
ATOM     92   O  Z9L D   5      -0.700  44.744 -25.3110  0.00  0.00     0.000 OA
ATOM     93   O  Z9L D   5       1.626  43.853 -25.5920  0.00  0.00     0.000 O
ATOM     94   O  Z9L D   5       0.732  45.480 -26.9640  0.00  0.00     0.000 OA
ENDBRANCH 79 90
BRANCH 81 95
ATOM     95   C  Z9L D   5       4.138  46.495 -21.0020  0.00  0.00     0.000 C
ATOM     96   S  Z9L D   5       5.371  47.685 -19.9870  0.00  0.00     0.000 S
ATOM     97   O  Z9L D   5       4.173  47.897 -20.9860  0.00  0.00     0.000 O
ATOM     98   O  Z9L D   5       6.484  47.211 -20.7680  0.00  0.00     0.000 OA
ATOM     99   O  Z9L D   5       5.037  47.092 -18.7360  0.00  0.00     0.000 OA
ATOM    100   O  Z9L D   5       5.370  49.127 -20.0240  0.00  0.00     0.000 O
ENDBRANCH 81 95
ENDBRANCH 76 80
ENDBRANCH 60 76
ENDBRANCH 59 63
ENDBRANCH 37 59
ENDBRANCH 36 40
ENDBRANCH 23 36
ENDBRANCH 22 26
ENDBRANCH 1 22
TORSDOF 19
ENDMDL
MODEL 47
REMARK VINA RESULT:      -5.8     33.280     38.787
ROOT
ATOM      1  C1  Z9H D   1      33.631   8.530 -55.1180  0.00  0.00     0.000 C
ATOM      2  C2  Z9H D   1      35.068   7.959 -55.0490  0.00  0.00     0.000 C
ATOM      3  C3  Z9H D   1      35.354   7.894 -56.5800  0.00  0.00     0.000 C
ATOM      4  C4  Z9H D   1      34.240   7.177 -57.4500  0.00  0.00     0.000 C
ATOM      5  C5  Z9H D   1      32.697   7.490 -57.3060  0.00  0.00     0.000 C
ATOM      6  O5  Z9H D   1      32.609   7.860 -55.9070  0.00  0.00     0.000 O
ATOM      7   O  Z9H D   1      36.637   7.326 -56.8520  0.00  0.00     0.000 O
ATOM      8   C  Z9H D   1      37.688   8.274 -57.1070  0.00  0.00     0.000 C
ATOM      9   O  Z9H D   1      34.595   7.422 -58.8150  0.00  0.00     0.000 O
ATOM     10   C  Z9H D   1      35.278   6.353 -59.4760  0.00  0.00     0.000 C
ENDROOT
BRANCH 2 11
ATOM     11   O  Z9H D   1      35.799   9.064 -54.5870  0.00  0.00     0.000 O
ATOM     12   O  Z9H D   1      36.612   9.162 -52.8870  0.00  0.00     0.000 OA
ATOM     13   S  Z9H D   1      35.908   8.029 -53.3870  0.00  0.00     0.000 S
ATOM     14   O  Z9H D   1      36.761   6.951 -53.7980  0.00  0.00     0.000 OA
ATOM     15   O  Z9H D   1      34.647   7.876 -52.6980  0.00  0.00     0.000 O
ENDBRANCH 2 11
BRANCH 5 16
ATOM     16   C  Z9H D   1      31.676   6.342 -57.9690  0.00  0.00     0.000 C
ATOM     17   S  Z9H D   1      30.478   4.786 -57.5420  0.00  0.00     0.000 S
ATOM     18   O  Z9H D   1      30.786   6.228 -56.8850  0.00  0.00     0.000 O
ATOM     19   O  Z9H D   1      31.561   3.848 -57.4720  0.00  0.00     0.000 O
ATOM     20   O  Z9H D   1      29.649   4.936 -58.6870  0.00  0.00     0.000 OA
ATOM     21   O  Z9H D   1      29.625   4.706 -56.3920  0.00  0.00     0.000 OA
ENDBRANCH 5 16
BRANCH 1 22
ATOM     22  O4  GU1 D   2      33.534   9.897 -55.6590  0.00  0.00     0.000 O
BRANCH 22 26
ATOM     23  C1  GU1 D   2      31.486  13.466 -55.4520  0.00  0.00     0.000 C
ATOM     24  C2  GU1 D   2      31.636  12.736 -54.1250  0.00  0.00     0.000 C
ATOM     25  C3  GU1 D   2      32.698  11.684 -54.2540  0.00  0.00     0.000 C
ATOM     26  C4  GU1 D   2      32.420  10.771 -55.4400  0.00  0.00     0.000 C
ATOM     27  C5  GU1 D   2      32.183  11.608 -56.7010  0.00  0.00     0.000 C
ATOM     28  O5  GU1 D   2      31.136  12.551 -56.4830  0.00  0.00     0.000 O
ATOM     29   O  GU1 D   2      32.007  13.617 -53.0720  0.00  0.00     0.000 O
ATOM     30   C  GU1 D   2      30.912  14.071 -52.2890  0.00  0.00     0.000 C
ATOM     31   C  GU1 D   2      33.749  11.197 -52.1440  0.00  0.00     0.000 C
ATOM     32   O  GU1 D   2      32.700  10.894 -53.0600  0.00  0.00     0.000 O
BRANCH 27 33
ATOM     33   C  GU1 D   2      31.785  10.736 -57.8680  0.00  0.00     0.000 C
ATOM     34   O  GU1 D   2      30.745  10.116 -57.7970  0.00  0.00     0.000 OA
ATOM     35   O  GU1 D   2      32.495  10.664 -58.8590  0.00  0.00     0.000 O
ENDBRANCH 27 33
BRANCH 23 36
ATOM     36  O4  GU6 D   3      30.369  14.352 -55.6650  0.00  0.00     0.000 O
BRANCH 36 40
ATOM     37  C1  GU6 D   3      28.194  17.614 -54.5170  0.00  0.00     0.000 C
ATOM     38  C2  GU6 D   3      29.690  17.746 -54.2590  0.00  0.00     0.000 C
ATOM     39  C3  GU6 D   3      30.423  16.629 -54.9550  0.00  0.00     0.000 C
ATOM     40  C4  GU6 D   3      29.622  15.543 -55.5310  0.00  0.00     0.000 C
ATOM     41  C5  GU6 D   3      28.415  15.227 -54.5870  0.00  0.00     0.000 C
ATOM     42  O5  GU6 D   3      27.757  16.362 -54.0130  0.00  0.00     0.000 O
BRANCH 38 43
ATOM     43   O  GU6 D   3      30.166  18.996 -54.7180  0.00  0.00     0.000 O
ATOM     44   S  GU6 D   3      30.384  20.029 -53.6200  0.00  0.00     0.000 S
ATOM     45   O  GU6 D   3      29.088  20.649 -53.2970  0.00  0.00     0.000 OA
ATOM     46   O  GU6 D   3      30.910  19.342 -52.4260  0.00  0.00     0.000 O
ATOM     47   O  GU6 D   3      31.346  21.020 -54.0910  0.00  0.00     0.000 OA
ENDBRANCH 38 43
BRANCH 39 48
ATOM     48   O  GU6 D   3      31.803  16.737 -55.2470  0.00  0.00     0.000 O
ATOM     49   S  GU6 D   3      32.502  17.206 -56.5230  0.00  0.00     0.000 S
ATOM     50   O  GU6 D   3      32.034  18.547 -56.8910  0.00  0.00     0.000 OA
ATOM     51   O  GU6 D   3      33.919  17.225 -56.1380  0.00  0.00     0.000 OA
ATOM     52   O  GU6 D   3      32.205  16.249 -57.6120  0.00  0.00     0.000 O
ENDBRANCH 39 48
BRANCH 41 53
ATOM     53   C  GU6 D   3      27.835  13.891 -54.2060  0.00  0.00     0.000 C
ATOM     54   O  GU6 D   3      26.914  14.349 -53.2500  0.00  0.00     0.000 O
ATOM     55   S  GU6 D   3      26.089  13.352 -52.4250  0.00  0.00     0.000 S
ATOM     56   O  GU6 D   3      27.043  12.617 -51.5640  0.00  0.00     0.000 O
ATOM     57   O  GU6 D   3      25.125  14.105 -51.6090  0.00  0.00     0.000 OA
ATOM     58   O  GU6 D   3      25.421  12.439 -53.3790  0.00  0.00     0.000 OA
ENDBRANCH 41 53
BRANCH 37 59
ATOM     59  O4  Z9K D   4      27.554  17.810 -55.7950  0.00  0.00     0.000 O
BRANCH 59 63
ATOM     60  C1  Z9K D   4      27.215  21.671 -56.4470  0.00  0.00     0.000 C
ATOM     61  C2  Z9K D   4      25.979  21.409 -55.5430  0.00  0.00     0.000 C
ATOM     62  C3  Z9K D   4      26.222  19.892 -55.1320  0.00  0.00     0.000 C
ATOM     63  C4  Z9K D   4      26.640  18.853 -56.2420  0.00  0.00     0.000 C
ATOM     64  C5  Z9K D   4      27.372  19.430 -57.4640  0.00  0.00     0.000 C
ATOM     65  O5  Z9K D   4      28.107  20.548 -56.9010  0.00  0.00     0.000 O
ATOM     66   O  Z9K D   4      25.092  19.293 -54.4730  0.00  0.00     0.000 O
ATOM     67   C  Z9K D   4      25.042  19.520 -53.0740  0.00  0.00     0.000 C
BRANCH 61 68
ATOM     68   O  Z9K D   4      26.155  22.165 -54.3760  0.00  0.00     0.000 O
ATOM     69   O  Z9K D   4      23.674  21.904 -54.9450  0.00  0.00     0.000 OA
ATOM     70   S  Z9K D   4      24.793  22.797 -54.9830  0.00  0.00     0.000 S
ATOM     71   O  Z9K D   4      25.126  23.674 -56.0620  0.00  0.00     0.000 OA
ATOM     72   O  Z9K D   4      24.930  23.494 -53.7450  0.00  0.00     0.000 OA
ENDBRANCH 61 68
BRANCH 64 73
ATOM     73   C  Z9K D   4      28.155  18.326 -58.2060  0.00  0.00     0.000 C
ATOM     74   O  Z9K D   4      29.420  18.331 -58.2430  0.00  0.00     0.000 O
ATOM     75   O  Z9K D   4      27.571  17.383 -58.7940  0.00  0.00     0.000 OA
ENDBRANCH 64 73
BRANCH 60 76
ATOM     76  O4  Z9L D   5      27.274  22.376 -57.6990  0.00  0.00     0.000 O
BRANCH 76 80
ATOM     77  C1  Z9L D   5      29.167  25.211 -59.7840  0.00  0.00     0.000 C
ATOM     78  C2  Z9L D   5      29.507  23.808 -60.4830  0.00  0.00     0.000 C
ATOM     79  C3  Z9L D   5      28.371  22.693 -59.9110  0.00  0.00     0.000 C
ATOM     80  C4  Z9L D   5      28.315  23.091 -58.3130  0.00  0.00     0.000 C
ATOM     81  C5  Z9L D   5      28.204  24.527 -57.5880  0.00  0.00     0.000 C
ATOM     82  O5  Z9L D   5      29.065  25.415 -58.3170  0.00  0.00     0.000 O
ATOM     83   C  Z9L D   5      27.568  27.034 -59.8990  0.00  0.00     0.000 C
ATOM     84   C  Z9L D   5      27.568  27.034 -59.8990  0.00  0.00     0.000 C
BRANCH 78 85
ATOM     85   O  Z9L D   5      29.345  23.959 -61.8570  0.00  0.00     0.000 O
ATOM     86   O  Z9L D   5      30.775  23.947 -63.1480  0.00  0.00     0.000 OA
ATOM     87   S  Z9L D   5      30.922  23.667 -61.7520  0.00  0.00     0.000 S
ATOM     88   O  Z9L D   5      31.250  22.265 -61.6840  0.00  0.00     0.000 OA
ATOM     89   O  Z9L D   5      31.729  24.722 -61.2420  0.00  0.00     0.000 OA
ENDBRANCH 78 85
BRANCH 79 90
ATOM     90   O  Z9L D   5      28.896  21.404 -59.8830  0.00  0.00     0.000 O
ATOM     91   S  Z9L D   5      27.695  21.181 -60.9060  0.00  0.00     0.000 S
ATOM     92   O  Z9L D   5      27.553  21.960 -62.1080  0.00  0.00     0.000 OA
ATOM     93   O  Z9L D   5      26.538  20.707 -60.1880  0.00  0.00     0.000 O
ATOM     94   O  Z9L D   5      28.485  20.039 -61.2330  0.00  0.00     0.000 OA
ENDBRANCH 79 90
BRANCH 81 95
ATOM     95   C  Z9L D   5      28.268  24.549 -55.9120  0.00  0.00     0.000 C
ATOM     96   S  Z9L D   5      29.455  24.801 -54.3330  0.00  0.00     0.000 S
ATOM     97   O  Z9L D   5      29.606  24.158 -55.7620  0.00  0.00     0.000 O
ATOM     98   O  Z9L D   5      28.631  23.907 -53.5610  0.00  0.00     0.000 OA
ATOM     99   O  Z9L D   5      29.247  26.210 -54.3060  0.00  0.00     0.000 OA
ATOM    100   O  Z9L D   5      30.825  24.361 -54.2310  0.00  0.00     0.000 O
ENDBRANCH 81 95
ENDBRANCH 76 80
ENDBRANCH 60 76
ENDBRANCH 59 63
ENDBRANCH 37 59
ENDBRANCH 36 40
ENDBRANCH 23 36
ENDBRANCH 22 26
ENDBRANCH 1 22
TORSDOF 19
ENDMDL
MODEL 48
REMARK VINA RESULT:      -5.8     22.575     29.962
ROOT
ATOM      1  C1  Z9H D   1      28.404  43.858  -3.8340  0.00  0.00     0.000 C
ATOM      2  C2  Z9H D   1      27.880  42.765  -2.8720  0.00  0.00     0.000 C
ATOM      3  C3  Z9H D   1      26.411  43.270  -2.7420  0.00  0.00     0.000 C
ATOM      4  C4  Z9H D   1      26.249  44.806  -2.3860  0.00  0.00     0.000 C
ATOM      5  C5  Z9H D   1      27.042  45.953  -3.1290  0.00  0.00     0.000 C
ATOM      6  O5  Z9H D   1      28.266  45.266  -3.4950  0.00  0.00     0.000 O
ATOM      7   O  Z9H D   1      25.657  42.467  -1.8320  0.00  0.00     0.000 O
ATOM      8   C  Z9H D   1      24.829  41.461  -2.4380  0.00  0.00     0.000 C
ATOM      9   O  Z9H D   1      24.854  45.094  -2.5320  0.00  0.00     0.000 O
ATOM     10   C  Z9H D   1      24.097  45.110  -1.3180  0.00  0.00     0.000 C
ENDROOT
BRANCH 2 11
ATOM     11   O  Z9H D   1      27.809  41.645  -3.7150  0.00  0.00     0.000 O
ATOM     12   O  Z9H D   1      28.869  40.098  -3.5130  0.00  0.00     0.000 OA
ATOM     13   S  Z9H D   1      28.898  41.221  -2.6380  0.00  0.00     0.000 S
ATOM     14   O  Z9H D   1      28.231  40.999  -1.3870  0.00  0.00     0.000 OA
ATOM     15   O  Z9H D   1      30.129  41.959  -2.8050  0.00  0.00     0.000 O
ENDBRANCH 2 11
BRANCH 5 16
ATOM     16   C  Z9H D   1      27.075  47.424  -2.3310  0.00  0.00     0.000 C
ATOM     17   S  Z9H D   1      27.045  49.417  -2.5850  0.00  0.00     0.000 S
ATOM     18   O  Z9H D   1      26.284  48.152  -3.2380  0.00  0.00     0.000 O
ATOM     19   O  Z9H D   1      28.447  49.496  -2.8820  0.00  0.00     0.000 O
ATOM     20   O  Z9H D   1      26.503  49.709  -1.3040  0.00  0.00     0.000 OA
ATOM     21   O  Z9H D   1      26.250  50.101  -3.5630  0.00  0.00     0.000 OA
ENDBRANCH 5 16
BRANCH 1 22
ATOM     22  O4  GU1 D   2      27.797  43.845  -5.1760  0.00  0.00     0.000 O
BRANCH 22 26
ATOM     23  C1  GU1 D   2      28.490  44.422  -9.1960  0.00  0.00     0.000 C
ATOM     24  C2  GU1 D   2      29.651  43.808  -8.4280  0.00  0.00     0.000 C
ATOM     25  C3  GU1 D   2      29.158  43.302  -7.1030  0.00  0.00     0.000 C
ATOM     26  C4  GU1 D   2      28.418  44.393  -6.3450  0.00  0.00     0.000 C
ATOM     27  C5  GU1 D   2      27.341  45.016  -7.2400  0.00  0.00     0.000 C
ATOM     28  O5  GU1 D   2      27.917  45.492  -8.4530  0.00  0.00     0.000 O
ATOM     29   O  GU1 D   2      30.236  42.718  -9.1310  0.00  0.00     0.000 O
ATOM     30   C  GU1 D   2      31.389  43.072  -9.8820  0.00  0.00     0.000 C
ATOM     31   C  GU1 D   2      30.500  41.484  -6.2740  0.00  0.00     0.000 C
ATOM     32   O  GU1 D   2      30.289  42.893  -6.3270  0.00  0.00     0.000 O
BRANCH 27 33
ATOM     33   C  GU1 D   2      26.670  46.183  -6.5560  0.00  0.00     0.000 C
ATOM     34   O  GU1 D   2      25.513  46.062  -6.2100  0.00  0.00     0.000 OA
ATOM     35   O  GU1 D   2      27.282  47.220  -6.3550  0.00  0.00     0.000 O
ENDBRANCH 27 33
BRANCH 23 36
ATOM     36  O4  GU6 D   3      28.741  45.196 -10.3850  0.00  0.00     0.000 O
BRANCH 36 40
ATOM     37  C1  GU6 D   3      29.214  48.207 -13.1060  0.00  0.00     0.000 C
ATOM     38  C2  GU6 D   3      28.695  46.907 -13.7070  0.00  0.00     0.000 C
ATOM     39  C3  GU6 D   3      28.300  45.963 -12.6010  0.00  0.00     0.000 C
ATOM     40  C4  GU6 D   3      28.669  46.328 -11.2290  0.00  0.00     0.000 C
ATOM     41  C5  GU6 D   3      30.085  46.994 -11.2290  0.00  0.00     0.000 C
ATOM     42  O5  GU6 D   3      30.342  47.913 -12.2970  0.00  0.00     0.000 O
BRANCH 38 43
ATOM     43   O  GU6 D   3      27.585  47.156 -14.5480  0.00  0.00     0.000 O
ATOM     44   S  GU6 D   3      27.836  46.867 -16.0220  0.00  0.00     0.000 S
ATOM     45   O  GU6 D   3      28.535  48.021 -16.6140  0.00  0.00     0.000 OA
ATOM     46   O  GU6 D   3      28.690  45.670 -16.1280  0.00  0.00     0.000 O
ATOM     47   O  GU6 D   3      26.555  46.627 -16.6790  0.00  0.00     0.000 OA
ENDBRANCH 38 43
BRANCH 39 48
ATOM     48   O  GU6 D   3      27.409  44.891 -12.8450  0.00  0.00     0.000 O
ATOM     49   S  GU6 D   3      27.701  43.444 -13.2390  0.00  0.00     0.000 S
ATOM     50   O  GU6 D   3      28.614  42.830 -12.2680  0.00  0.00     0.000 OA
ATOM     51   O  GU6 D   3      26.375  42.813 -13.1930  0.00  0.00     0.000 OA
ATOM     52   O  GU6 D   3      28.309  43.427 -14.5880  0.00  0.00     0.000 O
ENDBRANCH 39 48
BRANCH 41 53
ATOM     53   C  GU6 D   3      31.215  46.818 -10.2510  0.00  0.00     0.000 C
ATOM     54   O  GU6 D   3      30.566  47.331  -9.1160  0.00  0.00     0.000 O
ATOM     55   S  GU6 D   3      31.328  47.498  -7.7940  0.00  0.00     0.000 S
ATOM     56   O  GU6 D   3      32.357  48.539  -8.0220  0.00  0.00     0.000 O
ATOM     57   O  GU6 D   3      30.377  47.926  -6.7570  0.00  0.00     0.000 OA
ATOM     58   O  GU6 D   3      31.951  46.193  -7.4780  0.00  0.00     0.000 OA
ENDBRANCH 41 53
BRANCH 37 59
ATOM     59  O4  Z9K D   4      28.411  49.168 -12.3890  0.00  0.00     0.000 O
BRANCH 59 63
ATOM     60  C1  Z9K D   4      25.961  52.188 -11.8180  0.00  0.00     0.000 C
ATOM     61  C2  Z9K D   4      26.231  52.305 -13.3430  0.00  0.00     0.000 C
ATOM     62  C3  Z9K D   4      27.070  50.979 -13.6030  0.00  0.00     0.000 C
ATOM     63  C4  Z9K D   4      28.232  50.598 -12.6080  0.00  0.00     0.000 C
ATOM     64  C5  Z9K D   4      28.096  51.135 -11.1750  0.00  0.00     0.000 C
ATOM     65  O5  Z9K D   4      26.658  51.156 -10.9740  0.00  0.00     0.000 O
ATOM     66   O  Z9K D   4      27.673  50.933 -14.9090  0.00  0.00     0.000 O
ATOM     67   C  Z9K D   4      26.824  50.431 -15.9280  0.00  0.00     0.000 C
BRANCH 61 68
ATOM     68   O  Z9K D   4      25.003  52.126 -13.9930  0.00  0.00     0.000 O
ATOM     69   O  Z9K D   4      26.522  53.715 -15.3040  0.00  0.00     0.000 OA
ATOM     70   S  Z9K D   4      25.394  53.638 -14.4250  0.00  0.00     0.000 S
ATOM     71   O  Z9K D   4      25.125  54.519 -13.3310  0.00  0.00     0.000 OA
ATOM     72   O  Z9K D   4      24.191  53.410 -15.1590  0.00  0.00     0.000 OA
ENDBRANCH 61 68
BRANCH 64 73
ATOM     73   C  Z9K D   4      28.970  50.320 -10.1980  0.00  0.00     0.000 C
ATOM     74   O  Z9K D   4      30.230  50.429 -10.1980  0.00  0.00     0.000 O
ATOM     75   O  Z9K D   4      28.467  49.527  -9.3650  0.00  0.00     0.000 OA
ENDBRANCH 64 73
BRANCH 60 76
ATOM     76  O4  Z9L D   5      26.028  53.218 -10.8160  0.00  0.00     0.000 O
BRANCH 76 80
ATOM     77  C1  Z9L D   5      24.175  54.810  -7.6540  0.00  0.00     0.000 C
ATOM     78  C2  Z9L D   5      25.554  54.184  -7.1240  0.00  0.00     0.000 C
ATOM     79  C3  Z9L D   5      26.527  53.934  -8.4850  0.00  0.00     0.000 C
ATOM     80  C4  Z9L D   5      25.429  53.322  -9.5500  0.00  0.00     0.000 C
ATOM     81  C5  Z9L D   5      23.940  53.811  -9.9260  0.00  0.00     0.000 C
ATOM     82  O5  Z9L D   5      23.314  54.186  -8.6910  0.00  0.00     0.000 O
ATOM     83   C  Z9L D   5      23.250  56.892  -8.4910  0.00  0.00     0.000 C
ATOM     84   C  Z9L D   5      23.250  56.892  -8.4910  0.00  0.00     0.000 C
BRANCH 78 85
ATOM     85   O  Z9L D   5      26.162  55.121  -6.2940  0.00  0.00     0.000 O
ATOM     86   O  Z9L D   5      26.373  54.939  -4.3880  0.00  0.00     0.000 OA
ATOM     87   S  Z9L D   5      25.862  53.926  -5.2610  0.00  0.00     0.000 S
ATOM     88   O  Z9L D   5      26.866  52.891  -5.2620  0.00  0.00     0.000 OA
ATOM     89   O  Z9L D   5      24.504  53.749  -4.8760  0.00  0.00     0.000 OA
ENDBRANCH 78 85
BRANCH 79 90
ATOM     90   O  Z9L D   5      27.396  52.862  -8.2960  0.00  0.00     0.000 O
ATOM     91   S  Z9L D   5      28.455  54.019  -8.5720  0.00  0.00     0.000 S
ATOM     92   O  Z9L D   5      28.496  55.227  -7.7910  0.00  0.00     0.000 OA
ATOM     93   O  Z9L D   5      28.798  54.029  -9.9720  0.00  0.00     0.000 O
ATOM     94   O  Z9L D   5      29.313  53.074  -7.9340  0.00  0.00     0.000 OA
ENDBRANCH 79 90
BRANCH 81 95
ATOM     95   C  Z9L D   5      23.071  52.869 -11.0080  0.00  0.00     0.000 C
ATOM     96   S  Z9L D   5      21.719  51.416 -11.1790  0.00  0.00     0.000 S
ATOM     97   O  Z9L D   5      22.904  51.740 -10.1930  0.00  0.00     0.000 O
ATOM     98   O  Z9L D   5      22.315  50.997 -12.4210  0.00  0.00     0.000 OA
ATOM     99   O  Z9L D   5      20.625  52.328 -11.1520  0.00  0.00     0.000 OA
ATOM    100   O  Z9L D   5      21.606  50.266 -10.3160  0.00  0.00     0.000 O
ENDBRANCH 81 95
ENDBRANCH 76 80
ENDBRANCH 60 76
ENDBRANCH 59 63
ENDBRANCH 37 59
ENDBRANCH 36 40
ENDBRANCH 23 36
ENDBRANCH 22 26
ENDBRANCH 1 22
TORSDOF 19
ENDMDL
MODEL 49
REMARK VINA RESULT:      -5.8     32.083     38.240
ROOT
ATOM      1  C1  Z9H D   1      33.060   8.193 -55.2540  0.00  0.00     0.000 C
ATOM      2  C2  Z9H D   1      34.215   7.239 -55.6420  0.00  0.00     0.000 C
ATOM      3  C3  Z9H D   1      34.301   7.598 -57.1570  0.00  0.00     0.000 C
ATOM      4  C4  Z9H D   1      32.925   7.564 -57.9420  0.00  0.00     0.000 C
ATOM      5  C5  Z9H D   1      31.606   8.248 -57.4030  0.00  0.00     0.000 C
ATOM      6  O5  Z9H D   1      31.795   8.148 -55.9690  0.00  0.00     0.000 O
ATOM      7   O  Z9H D   1      35.278   6.803 -57.8310  0.00  0.00     0.000 O
ATOM      8   C  Z9H D   1      36.556   7.431 -58.0260  0.00  0.00     0.000 C
ATOM      9   O  Z9H D   1      33.198   8.128 -59.2290  0.00  0.00     0.000 O
ATOM     10   C  Z9H D   1      33.402   7.185 -60.2850  0.00  0.00     0.000 C
ENDROOT
BRANCH 2 11
ATOM     11   O  Z9H D   1      35.324   7.867 -55.0530  0.00  0.00     0.000 O
ATOM     12   O  Z9H D   1      36.311   7.146 -53.6160  0.00  0.00     0.000 OA
ATOM     13   S  Z9H D   1      35.214   6.498 -54.2540  0.00  0.00     0.000 S
ATOM     14   O  Z9H D   1      35.602   5.431 -55.1320  0.00  0.00     0.000 OA
ATOM     15   O  Z9H D   1      34.063   6.480 -53.3810  0.00  0.00     0.000 O
ENDBRANCH 2 11
BRANCH 5 16
ATOM     16   C  Z9H D   1      30.191   7.731 -58.1330  0.00  0.00     0.000 C
ATOM     17   S  Z9H D   1      28.706   6.380 -58.0350  0.00  0.00     0.000 S
ATOM     18   O  Z9H D   1      29.534   7.273 -56.9760  0.00  0.00     0.000 O
ATOM     19   O  Z9H D   1      29.469   5.353 -58.6850  0.00  0.00     0.000 O
ATOM     20   O  Z9H D   1      27.748   7.184 -58.7110  0.00  0.00     0.000 OA
ATOM     21   O  Z9H D   1      28.107   5.915 -56.8190  0.00  0.00     0.000 OA
ENDBRANCH 5 16
BRANCH 1 22
ATOM     22  O4  GU1 D   2      33.379   9.628 -55.3660  0.00  0.00     0.000 O
BRANCH 22 26
ATOM     23  C1  GU1 D   2      32.808  13.371 -53.7450  0.00  0.00     0.000 C
ATOM     24  C2  GU1 D   2      33.000  12.257 -52.7280  0.00  0.00     0.000 C
ATOM     25  C3  GU1 D   2      33.570  11.049 -53.4150  0.00  0.00     0.000 C
ATOM     26  C4  GU1 D   2      32.723  10.658 -54.6170  0.00  0.00     0.000 C
ATOM     27  C5  GU1 D   2      32.503  11.874 -55.5220  0.00  0.00     0.000 C
ATOM     28  O5  GU1 D   2      31.931  12.949 -54.7830  0.00  0.00     0.000 O
ATOM     29   O  GU1 D   2      33.889  12.636 -51.6840  0.00  0.00     0.000 O
ATOM     30   C  GU1 D   2      33.235  13.103 -50.5130  0.00  0.00     0.000 C
ATOM     31   C  GU1 D   2      34.847   9.672 -51.9110  0.00  0.00     0.000 C
ATOM     32   O  GU1 D   2      33.575   9.961 -52.4850  0.00  0.00     0.000 O
BRANCH 27 33
ATOM     33   C  GU1 D   2      31.567  11.545 -56.6610  0.00  0.00     0.000 C
ATOM     34   O  GU1 D   2      32.015  11.525 -57.7890  0.00  0.00     0.000 OA
ATOM     35   O  GU1 D   2      30.390  11.302 -56.4460  0.00  0.00     0.000 O
ENDBRANCH 27 33
BRANCH 23 36
ATOM     36  O4  GU6 D   3      32.051  14.546 -53.3920  0.00  0.00     0.000 O
BRANCH 36 40
ATOM     37  C1  GU6 D   3      29.456  17.700 -53.2790  0.00  0.00     0.000 C
ATOM     38  C2  GU6 D   3      30.875  18.051 -52.8500  0.00  0.00     0.000 C
ATOM     39  C3  GU6 D   3      31.800  16.910 -53.1830  0.00  0.00     0.000 C
ATOM     40  C4  GU6 D   3      31.194  15.647 -53.6200  0.00  0.00     0.000 C
ATOM     41  C5  GU6 D   3      29.884  15.388 -52.8060  0.00  0.00     0.000 C
ATOM     42  O5  GU6 D   3      29.050  16.531 -52.5840  0.00  0.00     0.000 O
BRANCH 38 43
ATOM     43   O  GU6 D   3      31.313  19.232 -53.4950  0.00  0.00     0.000 O
ATOM     44   S  GU6 D   3      31.039  20.512 -52.7170  0.00  0.00     0.000 S
ATOM     45   O  GU6 D   3      29.641  20.912 -52.9490  0.00  0.00     0.000 OA
ATOM     46   O  GU6 D   3      31.240  20.243 -51.2820  0.00  0.00     0.000 O
ATOM     47   O  GU6 D   3      31.969  21.544 -53.1670  0.00  0.00     0.000 OA
ENDBRANCH 38 43
BRANCH 39 48
ATOM     48   O  GU6 D   3      33.195  17.115 -53.2980  0.00  0.00     0.000 O
ATOM     49   S  GU6 D   3      34.250  17.316 -52.2100  0.00  0.00     0.000 S
ATOM     50   O  GU6 D   3      34.211  16.202 -51.2560  0.00  0.00     0.000 OA
ATOM     51   O  GU6 D   3      35.510  17.325 -52.9660  0.00  0.00     0.000 OA
ATOM     52   O  GU6 D   3      33.980  18.592 -51.5100  0.00  0.00     0.000 O
ENDBRANCH 39 48
BRANCH 41 53
ATOM     53   C  GU6 D   3      29.364  14.097 -52.2330  0.00  0.00     0.000 C
ATOM     54   O  GU6 D   3      28.111  14.098 -52.8670  0.00  0.00     0.000 O
ATOM     55   S  GU6 D   3      27.073  13.015 -52.5420  0.00  0.00     0.000 S
ATOM     56   O  GU6 D   3      26.673  13.217 -51.1300  0.00  0.00     0.000 O
ATOM     57   O  GU6 D   3      25.921  13.186 -53.4390  0.00  0.00     0.000 OA
ATOM     58   O  GU6 D   3      27.735  11.704 -52.7250  0.00  0.00     0.000 OA
ENDBRANCH 41 53
BRANCH 37 59
ATOM     59  O4  Z9K D   4      29.013  17.564 -54.6450  0.00  0.00     0.000 O
BRANCH 59 63
ATOM     60  C1  Z9K D   4      27.864  20.978 -56.2170  0.00  0.00     0.000 C
ATOM     61  C2  Z9K D   4      26.648  20.640 -55.3110  0.00  0.00     0.000 C
ATOM     62  C3  Z9K D   4      27.194  19.360 -54.5400  0.00  0.00     0.000 C
ATOM     63  C4  Z9K D   4      27.928  18.228 -55.3560  0.00  0.00     0.000 C
ATOM     64  C5  Z9K D   4      28.610  18.669 -56.6600  0.00  0.00     0.000 C
ATOM     65  O5  Z9K D   4      29.022  20.029 -56.3620  0.00  0.00     0.000 O
ATOM     66   O  Z9K D   4      26.178  18.673 -53.7870  0.00  0.00     0.000 O
ATOM     67   C  Z9K D   4      25.961  19.194 -52.4860  0.00  0.00     0.000 C
BRANCH 61 68
ATOM     68   O  Z9K D   4      26.550  21.661 -54.3560  0.00  0.00     0.000 O
ATOM     69   O  Z9K D   4      24.237  20.804 -55.0370  0.00  0.00     0.000 OA
ATOM     70   S  Z9K D   4      25.186  21.863 -55.2050  0.00  0.00     0.000 S
ATOM     71   O  Z9K D   4      25.497  22.519 -56.4380  0.00  0.00     0.000 OA
ATOM     72   O  Z9K D   4      25.051  22.837 -54.1700  0.00  0.00     0.000 OA
ENDBRANCH 61 68
BRANCH 64 73
ATOM     73   C  Z9K D   4      29.681  17.647 -57.0920  0.00  0.00     0.000 C
ATOM     74   O  Z9K D   4      29.361  16.567 -57.6690  0.00  0.00     0.000 O
ATOM     75   O  Z9K D   4      30.905  17.848 -56.8960  0.00  0.00     0.000 OA
ENDBRANCH 64 73
BRANCH 60 76
ATOM     76  O4  Z9L D   5      27.866  21.372 -57.6000  0.00  0.00     0.000 O
BRANCH 76 80
ATOM     77  C1  Z9L D   5      29.501  23.823 -60.3000  0.00  0.00     0.000 C
ATOM     78  C2  Z9L D   5      29.960  22.334 -60.6790  0.00  0.00     0.000 C
ATOM     79  C3  Z9L D   5      28.926  21.282 -59.8500  0.00  0.00     0.000 C
ATOM     80  C4  Z9L D   5      28.840  22.018 -58.3790  0.00  0.00     0.000 C
ATOM     81  C5  Z9L D   5      28.607  23.565 -57.9870  0.00  0.00     0.000 C
ATOM     82  O5  Z9L D   5      29.386  24.338 -58.9120  0.00  0.00     0.000 O
ATOM     83   C  Z9L D   5      27.750  25.434 -60.7800  0.00  0.00     0.000 C
ATOM     84   C  Z9L D   5      27.750  25.434 -60.7800  0.00  0.00     0.000 C
BRANCH 78 85
ATOM     85   O  Z9L D   5      29.782  22.162 -62.0490  0.00  0.00     0.000 O
ATOM     86   O  Z9L D   5      31.204  21.968 -63.3340  0.00  0.00     0.000 OA
ATOM     87   S  Z9L D   5      31.377  22.018 -61.9140  0.00  0.00     0.000 S
ATOM     88   O  Z9L D   5      31.811  20.694 -61.5430  0.00  0.00     0.000 OA
ATOM     89   O  Z9L D   5      32.103  23.216 -61.6670  0.00  0.00     0.000 OA
ENDBRANCH 78 85
BRANCH 79 90
ATOM     90   O  Z9L D   5      29.561  20.080 -59.5500  0.00  0.00     0.000 O
ATOM     91   S  Z9L D   5      28.361  19.532 -60.4430  0.00  0.00     0.000 S
ATOM     92   O  Z9L D   5      28.124  19.997 -61.7840  0.00  0.00     0.000 OA
ATOM     93   O  Z9L D   5      27.266  19.149 -59.5870  0.00  0.00     0.000 O
ATOM     94   O  Z9L D   5      29.239  18.411 -60.5320  0.00  0.00     0.000 OA
ENDBRANCH 79 90
BRANCH 81 95
ATOM     95   C  Z9L D   5      28.672  23.963 -56.3590  0.00  0.00     0.000 C
ATOM     96   S  Z9L D   5      29.836  24.664 -54.9020  0.00  0.00     0.000 S
ATOM     97   O  Z9L D   5      30.041  23.736 -56.1570  0.00  0.00     0.000 O
ATOM     98   O  Z9L D   5      29.098  23.893 -53.9330  0.00  0.00     0.000 OA
ATOM     99   O  Z9L D   5      29.499  26.019 -55.1810  0.00  0.00     0.000 OA
ATOM    100   O  Z9L D   5      31.240  24.380 -54.7360  0.00  0.00     0.000 O
ENDBRANCH 81 95
ENDBRANCH 76 80
ENDBRANCH 60 76
ENDBRANCH 59 63
ENDBRANCH 37 59
ENDBRANCH 36 40
ENDBRANCH 23 36
ENDBRANCH 22 26
ENDBRANCH 1 22
TORSDOF 19
ENDMDL
MODEL 50
REMARK VINA RESULT:      -5.8     30.177     36.262
ROOT
ATOM      1  C1  Z9H D   1      -4.901  38.421 -25.6010  0.00  0.00     0.000 C
ATOM      2  C2  Z9H D   1      -6.396  38.379 -25.9980  0.00  0.00     0.000 C
ATOM      3  C3  Z9H D   1      -7.009  38.492 -24.5690  0.00  0.00     0.000 C
ATOM      4  C4  Z9H D   1      -6.428  37.478 -23.4980  0.00  0.00     0.000 C
ATOM      5  C5  Z9H D   1      -4.880  37.232 -23.2930  0.00  0.00     0.000 C
ATOM      6  O5  Z9H D   1      -4.371  37.479 -24.6280  0.00  0.00     0.000 O
ATOM      7   O  Z9H D   1      -8.436  38.417 -24.6000  0.00  0.00     0.000 O
ATOM      8   C  Z9H D   1      -9.120  39.680 -24.5530  0.00  0.00     0.000 C
ATOM      9   O  Z9H D   1      -6.959  37.898 -22.2370  0.00  0.00     0.000 O
ATOM     10   C  Z9H D   1      -8.096  37.165 -21.7720  0.00  0.00     0.000 C
ENDROOT
BRANCH 2 11
ATOM     11   O  Z9H D   1      -6.581  39.644 -26.5770  0.00  0.00     0.000 O
ATOM     12   O  Z9H D   1      -6.967  39.930 -28.4010  0.00  0.00     0.000 OA
ATOM     13   S  Z9H D   1      -6.825  38.650 -27.7910  0.00  0.00     0.000 S
ATOM     14   O  Z9H D   1      -8.070  37.970 -27.5740  0.00  0.00     0.000 OA
ATOM     15   O  Z9H D   1      -5.597  38.021 -28.2210  0.00  0.00     0.000 O
ENDBRANCH 2 11
BRANCH 5 16
ATOM     16   C  Z9H D   1      -4.489  35.836 -22.4570  0.00  0.00     0.000 C
ATOM     17   S  Z9H D   1      -5.233  34.132 -21.6920  0.00  0.00     0.000 S
ATOM     18   O  Z9H D   1      -5.444  34.986 -23.0460  0.00  0.00     0.000 O
ATOM     19   O  Z9H D   1      -5.715  34.767 -20.4980  0.00  0.00     0.000 O
ATOM     20   O  Z9H D   1      -4.009  33.412 -21.7520  0.00  0.00     0.000 OA
ATOM     21   O  Z9H D   1      -6.243  33.331 -22.3190  0.00  0.00     0.000 OA
ENDBRANCH 5 16
BRANCH 1 22
ATOM     22  O4  GU1 D   2      -4.453  39.695 -25.0120  0.00  0.00     0.000 O
BRANCH 22 26
ATOM     23  C1  GU1 D   2      -1.354  42.398 -24.7730  0.00  0.00     0.000 C
ATOM     24  C2  GU1 D   2      -1.527  41.742 -26.1340  0.00  0.00     0.000 C
ATOM     25  C3  GU1 D   2      -2.879  41.095 -26.2060  0.00  0.00     0.000 C
ATOM     26  C4  GU1 D   2      -3.097  40.156 -25.0290  0.00  0.00     0.000 C
ATOM     27  C5  GU1 D   2      -2.797  40.883 -23.7150  0.00  0.00     0.000 C
ATOM     28  O5  GU1 D   2      -1.481  41.430 -23.7370  0.00  0.00     0.000 O
ATOM     29   O  GU1 D   2      -1.427  42.684 -27.1950  0.00  0.00     0.000 O
ATOM     30   C  GU1 D   2      -0.138  42.747 -27.7890  0.00  0.00     0.000 C
ATOM     31   C  GU1 D   2      -3.695  40.954 -28.4660  0.00  0.00     0.000 C
ATOM     32   O  GU1 D   2      -2.954  40.336 -27.4170  0.00  0.00     0.000 O
BRANCH 27 33
ATOM     33   C  GU1 D   2      -2.887  39.942 -22.5370  0.00  0.00     0.000 C
ATOM     34   O  GU1 D   2      -3.725  40.161 -21.6860  0.00  0.00     0.000 OA
ATOM     35   O  GU1 D   2      -2.136  38.984 -22.4490  0.00  0.00     0.000 O
ENDBRANCH 27 33
BRANCH 23 36
ATOM     36  O4  GU6 D   3      -0.057  42.873 -24.3610  0.00  0.00     0.000 O
BRANCH 36 40
ATOM     37  C1  GU6 D   3       3.446  44.973 -24.4900  0.00  0.00     0.000 C
ATOM     38  C2  GU6 D   3       3.194  44.272 -23.1610  0.00  0.00     0.000 C
ATOM     39  C3  GU6 D   3       2.036  43.319 -23.3050  0.00  0.00     0.000 C
ATOM     40  C4  GU6 D   3       1.248  43.385 -24.5400  0.00  0.00     0.000 C
ATOM     41  C5  GU6 D   3       1.101  44.877 -24.9870  0.00  0.00     0.000 C
ATOM     42  O5  GU6 D   3       2.275  45.687 -24.8540  0.00  0.00     0.000 O
BRANCH 38 43
ATOM     43   O  GU6 D   3       4.348  43.570 -22.7420  0.00  0.00     0.000 O
ATOM     44   S  GU6 D   3       4.855  43.961 -21.3600  0.00  0.00     0.000 S
ATOM     45   O  GU6 D   3       5.657  45.190 -21.4860  0.00  0.00     0.000 OA
ATOM     46   O  GU6 D   3       3.694  44.220 -20.4890  0.00  0.00     0.000 O
ATOM     47   O  GU6 D   3       5.649  42.861 -20.8220  0.00  0.00     0.000 OA
ENDBRANCH 38 43
BRANCH 39 48
ATOM     48   O  GU6 D   3       1.859  42.250 -22.3950  0.00  0.00     0.000 O
ATOM     49   S  GU6 D   3       2.259  40.780 -22.5190  0.00  0.00     0.000 S
ATOM     50   O  GU6 D   3       3.695  40.669 -22.8010  0.00  0.00     0.000 OA
ATOM     51   O  GU6 D   3       1.934  40.234 -21.1940  0.00  0.00     0.000 OA
ATOM     52   O  GU6 D   3       1.478  40.161 -23.6130  0.00  0.00     0.000 O
ENDBRANCH 39 48
BRANCH 41 53
ATOM     53   C  GU6 D   3      -0.101  45.581 -25.5550  0.00  0.00     0.000 C
ATOM     54   O  GU6 D   3       0.467  45.974 -26.7770  0.00  0.00     0.000 O
ATOM     55   S  GU6 D   3      -0.319  46.862 -27.7510  0.00  0.00     0.000 S
ATOM     56   O  GU6 D   3      -0.490  48.176 -27.0880  0.00  0.00     0.000 O
ATOM     57   O  GU6 D   3       0.461  47.003 -28.9900  0.00  0.00     0.000 OA
ATOM     58   O  GU6 D   3      -1.626  46.209 -27.9840  0.00  0.00     0.000 OA
ENDBRANCH 41 53
BRANCH 37 59
ATOM     59  O4  Z9K D   4       3.946  44.332 -25.6830  0.00  0.00     0.000 O
BRANCH 59 63
ATOM     60  C1  Z9K D   4       6.235  42.424 -28.2460  0.00  0.00     0.000 C
ATOM     61  C2  Z9K D   4       5.383  41.256 -27.6750  0.00  0.00     0.000 C
ATOM     62  C3  Z9K D   4       4.339  42.054 -26.7800  0.00  0.00     0.000 C
ATOM     63  C4  Z9K D   4       4.858  43.206 -25.8370  0.00  0.00     0.000 C
ATOM     64  C5  Z9K D   4       6.162  43.895 -26.2680  0.00  0.00     0.000 C
ATOM     65  O5  Z9K D   4       6.099  43.826 -27.7170  0.00  0.00     0.000 O
ATOM     66   O  Z9K D   4       3.554  41.203 -25.9260  0.00  0.00     0.000 O
ATOM     67   C  Z9K D   4       2.400  40.657 -26.5430  0.00  0.00     0.000 C
BRANCH 61 68
ATOM     68   O  Z9K D   4       4.655  40.718 -28.7440  0.00  0.00     0.000 O
ATOM     69   O  Z9K D   4       5.259  38.913 -27.0330  0.00  0.00     0.000 OA
ATOM     70   S  Z9K D   4       5.589  39.467 -28.3120  0.00  0.00     0.000 S
ATOM     71   O  Z9K D   4       6.911  39.678 -28.8160  0.00  0.00     0.000 OA
ATOM     72   O  Z9K D   4       4.774  38.902 -29.3380  0.00  0.00     0.000 OA
ENDBRANCH 61 68
BRANCH 64 73
ATOM     73   C  Z9K D   4       6.300  45.278 -25.5970  0.00  0.00     0.000 C
ATOM     74   O  Z9K D   4       5.996  46.339 -26.2140  0.00  0.00     0.000 O
ATOM     75   O  Z9K D   4       6.712  45.402 -24.4170  0.00  0.00     0.000 OA
ENDBRANCH 64 73
BRANCH 60 76
ATOM     76  O4  Z9L D   5       7.663  42.498 -28.3990  0.00  0.00     0.000 O
BRANCH 76 80
ATOM     77  C1  Z9L D   5      10.540  43.704 -30.8960  0.00  0.00     0.000 C
ATOM     78  C2  Z9L D   5      10.752  44.496 -29.5180  0.00  0.00     0.000 C
ATOM     79  C3  Z9L D   5       9.856  43.673 -28.3430  0.00  0.00     0.000 C
ATOM     80  C4  Z9L D   5       8.470  43.348 -29.1720  0.00  0.00     0.000 C
ATOM     81  C5  Z9L D   5       8.243  42.762 -30.6570  0.00  0.00     0.000 C
ATOM     82  O5  Z9L D   5       9.215  43.403 -31.4970  0.00  0.00     0.000 O
ATOM     83   C  Z9L D   5      11.237  41.672 -32.0280  0.00  0.00     0.000 C
ATOM     84   C  Z9L D   5      11.237  41.672 -32.0280  0.00  0.00     0.000 C
BRANCH 78 85
ATOM     85   O  Z9L D   5      12.103  44.435 -29.1880  0.00  0.00     0.000 O
ATOM     86   O  Z9L D   5      13.314  45.932 -29.2020  0.00  0.00     0.000 OA
ATOM     87   S  Z9L D   5      11.901  46.013 -29.4170  0.00  0.00     0.000 S
ATOM     88   O  Z9L D   5      11.385  46.706 -28.2630  0.00  0.00     0.000 OA
ATOM     89   O  Z9L D   5      11.752  46.443 -30.7650  0.00  0.00     0.000 OA
ENDBRANCH 78 85
BRANCH 79 90
ATOM     90   O  Z9L D   5       9.416  44.538 -27.3440  0.00  0.00     0.000 O
ATOM     91   S  Z9L D   5      10.219  43.489 -26.4540  0.00  0.00     0.000 S
ATOM     92   O  Z9L D   5      11.605  43.181 -26.6900  0.00  0.00     0.000 OA
ATOM     93   O  Z9L D   5       9.309  42.485 -25.9620  0.00  0.00     0.000 O
ATOM     94   O  Z9L D   5      10.178  44.581 -25.5360  0.00  0.00     0.000 OA
ENDBRANCH 79 90
BRANCH 81 95
ATOM     95   C  Z9L D   5       6.662  42.650 -31.2060  0.00  0.00     0.000 C
ATOM     96   S  Z9L D   5       5.257  43.533 -32.3080  0.00  0.00     0.000 S
ATOM     97   O  Z9L D   5       6.409  44.022 -31.3520  0.00  0.00     0.000 O
ATOM     98   O  Z9L D   5       4.233  42.968 -31.4680  0.00  0.00     0.000 OA
ATOM     99   O  Z9L D   5       5.679  42.882 -33.5020  0.00  0.00     0.000 OA
ATOM    100   O  Z9L D   5       5.033  44.954 -32.4060  0.00  0.00     0.000 O
ENDBRANCH 81 95
ENDBRANCH 76 80
ENDBRANCH 60 76
ENDBRANCH 59 63
ENDBRANCH 37 59
ENDBRANCH 36 40
ENDBRANCH 23 36
ENDBRANCH 22 26
ENDBRANCH 1 22
TORSDOF 19
ENDMDL
MODEL 51
REMARK VINA RESULT:      -5.8     32.259     39.399
ROOT
ATOM      1  C1  Z9H D   1      -4.186  23.283 -21.7120  0.00  0.00     0.000 C
ATOM      2  C2  Z9H D   1      -5.120  23.100 -22.9320  0.00  0.00     0.000 C
ATOM      3  C3  Z9H D   1      -5.013  21.549 -23.0630  0.00  0.00     0.000 C
ATOM      4  C4  Z9H D   1      -3.538  20.969 -23.0790  0.00  0.00     0.000 C
ATOM      5  C5  Z9H D   1      -2.430  21.399 -22.0370  0.00  0.00     0.000 C
ATOM      6  O5  Z9H D   1      -2.829  22.760 -21.7380  0.00  0.00     0.000 O
ATOM      7   O  Z9H D   1      -5.750  21.064 -24.1870  0.00  0.00     0.000 O
ATOM      8   C  Z9H D   1      -7.056  20.543 -23.8890  0.00  0.00     0.000 C
ATOM      9   O  Z9H D   1      -3.679  19.548 -22.9840  0.00  0.00     0.000 O
ATOM     10   C  Z9H D   1      -3.580  18.834 -24.2200  0.00  0.00     0.000 C
ENDROOT
BRANCH 2 11
ATOM     11   O  Z9H D   1      -6.385  23.333 -22.3690  0.00  0.00     0.000 O
ATOM     12   O  Z9H D   1      -7.505  24.774 -22.8420  0.00  0.00     0.000 OA
ATOM     13   S  Z9H D   1      -6.242  24.499 -23.4390  0.00  0.00     0.000 S
ATOM     14   O  Z9H D   1      -6.332  23.922 -24.7500  0.00  0.00     0.000 OA
ATOM     15   O  Z9H D   1      -5.266  25.483 -23.0290  0.00  0.00     0.000 O
ENDBRANCH 2 11
BRANCH 5 16
ATOM     16   C  Z9H D   1      -0.859  21.030 -22.4810  0.00  0.00     0.000 C
ATOM     17   S  Z9H D   1       0.330  20.573 -24.0360  0.00  0.00     0.000 S
ATOM     18   O  Z9H D   1      -0.883  21.603 -23.7660  0.00  0.00     0.000 O
ATOM     19   O  Z9H D   1      -0.044  19.188 -24.0390  0.00  0.00     0.000 O
ATOM     20   O  Z9H D   1       1.526  21.056 -23.4370  0.00  0.00     0.000 OA
ATOM     21   O  Z9H D   1       0.226  21.160 -25.3400  0.00  0.00     0.000 OA
ENDBRANCH 5 16
BRANCH 1 22
ATOM     22  O4  GU1 D   2      -4.680  22.683 -20.4590  0.00  0.00     0.000 O
BRANCH 22 26
ATOM     23  C1  GU1 D   2      -5.032  23.350 -16.4090  0.00  0.00     0.000 C
ATOM     24  C2  GU1 D   2      -4.901  24.607 -17.2550  0.00  0.00     0.000 C
ATOM     25  C3  GU1 D   2      -5.166  24.268 -18.6940  0.00  0.00     0.000 C
ATOM     26  C4  GU1 D   2      -4.285  23.115 -19.1510  0.00  0.00     0.000 C
ATOM     27  C5  GU1 D   2      -4.411  21.940 -18.1760  0.00  0.00     0.000 C
ATOM     28  O5  GU1 D   2      -4.109  22.360 -16.8490  0.00  0.00     0.000 O
ATOM     29   O  GU1 D   2      -5.825  25.613 -16.8590  0.00  0.00     0.000 O
ATOM     30   C  GU1 D   2      -5.276  26.583 -15.9770  0.00  0.00     0.000 C
ATOM     31   C  GU1 D   2      -6.003  26.156 -19.9290  0.00  0.00     0.000 C
ATOM     32   O  GU1 D   2      -4.865  25.418 -19.4920  0.00  0.00     0.000 O
BRANCH 27 33
ATOM     33   C  GU1 D   2      -3.457  20.826 -18.5370  0.00  0.00     0.000 C
ATOM     34   O  GU1 D   2      -3.920  19.772 -18.9220  0.00  0.00     0.000 OA
ATOM     35   O  GU1 D   2      -2.250  20.988 -18.4470  0.00  0.00     0.000 O
ENDBRANCH 27 33
BRANCH 23 36
ATOM     36  O4  GU6 D   3      -4.589  23.355 -15.0380  0.00  0.00     0.000 O
BRANCH 36 40
ATOM     37  C1  GU6 D   3      -4.678  23.686 -10.9660  0.00  0.00     0.000 C
ATOM     38  C2  GU6 D   3      -3.311  23.313 -11.5270  0.00  0.00     0.000 C
ATOM     39  C3  GU6 D   3      -3.315  23.483 -13.0230  0.00  0.00     0.000 C
ATOM     40  C4  GU6 D   3      -4.605  23.735 -13.6760  0.00  0.00     0.000 C
ATOM     41  C5  GU6 D   3      -5.720  22.892 -12.9750  0.00  0.00     0.000 C
ATOM     42  O5  GU6 D   3      -5.652  22.833 -11.5460  0.00  0.00     0.000 O
BRANCH 38 43
ATOM     43   O  GU6 D   3      -2.300  24.120 -10.9520  0.00  0.00     0.000 O
ATOM     44   S  GU6 D   3      -1.702  23.559  -9.6690  0.00  0.00     0.000 S
ATOM     45   O  GU6 D   3      -2.597  23.896  -8.5490  0.00  0.00     0.000 OA
ATOM     46   O  GU6 D   3      -1.605  22.094  -9.7950  0.00  0.00     0.000 O
ATOM     47   O  GU6 D   3      -0.374  24.134  -9.4790  0.00  0.00     0.000 OA
ENDBRANCH 38 43
BRANCH 39 48
ATOM     48   O  GU6 D   3      -2.105  23.627 -13.7420  0.00  0.00     0.000 O
ATOM     49   S  GU6 D   3      -1.037  22.588 -14.0810  0.00  0.00     0.000 S
ATOM     50   O  GU6 D   3      -1.642  21.450 -14.7820  0.00  0.00     0.000 OA
ATOM     51   O  GU6 D   3      -0.121  23.328 -14.9610  0.00  0.00     0.000 OA
ATOM     52   O  GU6 D   3      -0.398  22.130 -12.8270  0.00  0.00     0.000 O
ENDBRANCH 39 48
BRANCH 41 53
ATOM     53   C  GU6 D   3      -6.869  22.141 -13.5920  0.00  0.00     0.000 C
ATOM     54   O  GU6 D   3      -7.703  23.243 -13.8440  0.00  0.00     0.000 O
ATOM     55   S  GU6 D   3      -9.121  23.036 -14.3940  0.00  0.00     0.000 S
ATOM     56   O  GU6 D   3      -9.891  22.340 -13.3370  0.00  0.00     0.000 O
ATOM     57   O  GU6 D   3      -9.708  24.353 -14.6820  0.00  0.00     0.000 OA
ATOM     58   O  GU6 D   3      -9.004  22.198 -15.6070  0.00  0.00     0.000 OA
ENDBRANCH 41 53
BRANCH 37 59
ATOM     59  O4  Z9K D   4      -5.230  25.019 -10.9480  0.00  0.00     0.000 O
BRANCH 59 63
ATOM     60  C1  Z9K D   4      -6.103  27.815  -8.3270  0.00  0.00     0.000 C
ATOM     61  C2  Z9K D   4      -6.651  26.549  -7.6120  0.00  0.00     0.000 C
ATOM     62  C3  Z9K D   4      -6.134  25.404  -8.5860  0.00  0.00     0.000 C
ATOM     63  C4  Z9K D   4      -6.305  25.584 -10.1420  0.00  0.00     0.000 C
ATOM     64  C5  Z9K D   4      -6.370  27.033 -10.6500  0.00  0.00     0.000 C
ATOM     65  O5  Z9K D   4      -5.520  27.742  -9.7120  0.00  0.00     0.000 O
ATOM     66   O  Z9K D   4      -6.701  24.113  -8.2990  0.00  0.00     0.000 O
ATOM     67   C  Z9K D   4      -6.015  23.381  -7.2960  0.00  0.00     0.000 C
BRANCH 61 68
ATOM     68   O  Z9K D   4      -5.931  26.407  -6.4180  0.00  0.00     0.000 O
ATOM     69   O  Z9K D   4      -8.310  25.496  -6.1770  0.00  0.00     0.000 OA
ATOM     70   S  Z9K D   4      -7.444  26.596  -5.8740  0.00  0.00     0.000 S
ATOM     71   O  Z9K D   4      -7.796  27.981  -5.9470  0.00  0.00     0.000 OA
ATOM     72   O  Z9K D   4      -6.714  26.354  -4.6720  0.00  0.00     0.000 OA
ENDBRANCH 61 68
BRANCH 64 73
ATOM     73   C  Z9K D   4      -6.034  27.102 -12.1550  0.00  0.00     0.000 C
ATOM     74   O  Z9K D   4      -4.875  27.415 -12.5540  0.00  0.00     0.000 O
ATOM     75   O  Z9K D   4      -6.891  26.846 -13.0370  0.00  0.00     0.000 OA
ENDBRANCH 64 73
BRANCH 60 76
ATOM     76  O4  Z9L D   5      -6.762  29.074  -8.5470  0.00  0.00     0.000 O
BRANCH 76 80
ATOM     77  C1  Z9L D   5      -6.412  33.049  -8.3240  0.00  0.00     0.000 C
ATOM     78  C2  Z9L D   5      -6.464  32.668  -9.8810  0.00  0.00     0.000 C
ATOM     79  C3  Z9L D   5      -7.064  31.090  -9.9760  0.00  0.00     0.000 C
ATOM     80  C4  Z9L D   5      -6.251  30.368  -8.7380  0.00  0.00     0.000 C
ATOM     81  C5  Z9L D   5      -5.994  30.851  -7.2220  0.00  0.00     0.000 C
ATOM     82  O5  Z9L D   5      -5.702  32.255  -7.2890  0.00  0.00     0.000 O
ATOM     83   C  Z9L D   5      -7.873  33.673  -6.4890  0.00  0.00     0.000 C
ATOM     84   C  Z9L D   5      -7.873  33.673  -6.4890  0.00  0.00     0.000 C
BRANCH 78 85
ATOM     85   O  Z9L D   5      -7.355  33.534 -10.5080  0.00  0.00     0.000 O
ATOM     86   O  Z9L D   5      -6.866  34.899 -11.7760  0.00  0.00     0.000 OA
ATOM     87   S  Z9L D   5      -5.972  33.927 -11.2250  0.00  0.00     0.000 S
ATOM     88   O  Z9L D   5      -5.625  33.069 -12.3310  0.00  0.00     0.000 OA
ATOM     89   O  Z9L D   5      -5.044  34.671 -10.4450  0.00  0.00     0.000 OA
ENDBRANCH 78 85
BRANCH 79 90
ATOM     90   O  Z9L D   5      -6.567  30.424 -11.0930  0.00  0.00     0.000 O
ATOM     91   S  Z9L D   5      -8.123  30.385 -11.4300  0.00  0.00     0.000 S
ATOM     92   O  Z9L D   5      -8.926  31.577 -11.5020  0.00  0.00     0.000 OA
ATOM     93   O  Z9L D   5      -8.682  29.141 -10.9590  0.00  0.00     0.000 O
ATOM     94   O  Z9L D   5      -7.603  30.145 -12.7370  0.00  0.00     0.000 OA
ENDBRANCH 79 90
BRANCH 81 95
ATOM     95   C  Z9L D   5      -5.026  29.879  -6.2580  0.00  0.00     0.000 C
ATOM     96   S  Z9L D   5      -4.164  29.704  -4.4710  0.00  0.00     0.000 S
ATOM     97   O  Z9L D   5      -4.464  30.889  -5.4630  0.00  0.00     0.000 O
ATOM     98   O  Z9L D   5      -3.094  28.936  -5.0540  0.00  0.00     0.000 OA
ATOM     99   O  Z9L D   5      -5.304  29.071  -3.8990  0.00  0.00     0.000 OA
ATOM    100   O  Z9L D   5      -3.586  30.782  -3.7060  0.00  0.00     0.000 O
ENDBRANCH 81 95
ENDBRANCH 76 80
ENDBRANCH 60 76
ENDBRANCH 59 63
ENDBRANCH 37 59
ENDBRANCH 36 40
ENDBRANCH 23 36
ENDBRANCH 22 26
ENDBRANCH 1 22
TORSDOF 19
ENDMDL
MODEL 52
REMARK VINA RESULT:      -5.8     32.237     39.015
ROOT
ATOM      1  C1  Z9H D   1      -4.175  23.230 -21.7540  0.00  0.00     0.000 C
ATOM      2  C2  Z9H D   1      -5.078  23.127 -23.0060  0.00  0.00     0.000 C
ATOM      3  C3  Z9H D   1      -4.979  21.586 -23.2250  0.00  0.00     0.000 C
ATOM      4  C4  Z9H D   1      -3.509  20.994 -23.2360  0.00  0.00     0.000 C
ATOM      5  C5  Z9H D   1      -2.425  21.353 -22.1440  0.00  0.00     0.000 C
ATOM      6  O5  Z9H D   1      -2.822  22.698 -21.7760  0.00  0.00     0.000 O
ATOM      7   O  Z9H D   1      -5.690  21.173 -24.3930  0.00  0.00     0.000 O
ATOM      8   C  Z9H D   1      -7.007  20.647 -24.1600  0.00  0.00     0.000 C
ATOM      9   O  Z9H D   1      -3.663  19.571 -23.2290  0.00  0.00     0.000 O
ATOM     10   C  Z9H D   1      -3.536  18.930 -24.5010  0.00  0.00     0.000 C
ENDROOT
BRANCH 2 11
ATOM     11   O  Z9H D   1      -6.355  23.338 -22.4630  0.00  0.00     0.000 O
ATOM     12   O  Z9H D   1      -7.433  24.839 -22.8420  0.00  0.00     0.000 OA
ATOM     13   S  Z9H D   1      -6.156  24.589 -23.4220  0.00  0.00     0.000 S
ATOM     14   O  Z9H D   1      -6.216  24.130 -24.7810  0.00  0.00     0.000 OA
ATOM     15   O  Z9H D   1      -5.175  25.512 -22.8990  0.00  0.00     0.000 O
ENDBRANCH 2 11
BRANCH 5 16
ATOM     16   C  Z9H D   1      -0.846  20.996 -22.5680  0.00  0.00     0.000 C
ATOM     17   S  Z9H D   1       0.372  20.581 -24.1120  0.00  0.00     0.000 S
ATOM     18   O  Z9H D   1      -0.847  21.603 -23.8380  0.00  0.00     0.000 O
ATOM     19   O  Z9H D   1      -0.001  19.196 -24.1580  0.00  0.00     0.000 O
ATOM     20   O  Z9H D   1       1.556  21.049 -23.4800  0.00  0.00     0.000 OA
ATOM     21   O  Z9H D   1       0.292  21.201 -25.4030  0.00  0.00     0.000 OA
ENDBRANCH 5 16
BRANCH 1 22
ATOM     22  O4  GU1 D   2      -4.706  22.563 -20.5510  0.00  0.00     0.000 O
BRANCH 22 26
ATOM     23  C1  GU1 D   2      -4.936  22.791 -16.4450  0.00  0.00     0.000 C
ATOM     24  C2  GU1 D   2      -4.812  24.131 -17.1530  0.00  0.00     0.000 C
ATOM     25  C3  GU1 D   2      -5.121  23.952 -18.6120  0.00  0.00     0.000 C
ATOM     26  C4  GU1 D   2      -4.269  22.846 -19.2170  0.00  0.00     0.000 C
ATOM     27  C5  GU1 D   2      -4.383  21.574 -18.3710  0.00  0.00     0.000 C
ATOM     28  O5  GU1 D   2      -4.039  21.845 -17.0150  0.00  0.00     0.000 O
ATOM     29   O  GU1 D   2      -5.711  25.098 -16.6240  0.00  0.00     0.000 O
ATOM     30   C  GU1 D   2      -5.125  25.960 -15.6590  0.00  0.00     0.000 C
ATOM     31   C  GU1 D   2      -5.967  25.972 -19.6110  0.00  0.00     0.000 C
ATOM     32   O  GU1 D   2      -4.827  25.178 -19.2890  0.00  0.00     0.000 O
BRANCH 27 33
ATOM     33   C  GU1 D   2      -3.455  20.496 -18.8780  0.00  0.00     0.000 C
ATOM     34   O  GU1 D   2      -3.936  19.553 -19.4710  0.00  0.00     0.000 OA
ATOM     35   O  GU1 D   2      -2.250  20.578 -18.6960  0.00  0.00     0.000 O
ENDBRANCH 27 33
BRANCH 23 36
ATOM     36  O4  GU6 D   3      -4.455  22.643 -15.0940  0.00  0.00     0.000 O
BRANCH 36 40
ATOM     37  C1  GU6 D   3      -4.348  22.036 -11.0550  0.00  0.00     0.000 C
ATOM     38  C2  GU6 D   3      -3.021  22.494 -11.6470  0.00  0.00     0.000 C
ATOM     39  C3  GU6 D   3      -3.232  22.947 -13.0680  0.00  0.00     0.000 C
ATOM     40  C4  GU6 D   3      -4.536  22.676 -13.6830  0.00  0.00     0.000 C
ATOM     41  C5  GU6 D   3      -5.052  21.274 -13.2180  0.00  0.00     0.000 C
ATOM     42  O5  GU6 D   3      -4.844  20.960 -11.8360  0.00  0.00     0.000 O
BRANCH 38 43
ATOM     43   O  GU6 D   3      -2.472  23.549 -10.8800  0.00  0.00     0.000 O
ATOM     44   S  GU6 D   3      -1.445  23.106  -9.8460  0.00  0.00     0.000 S
ATOM     45   O  GU6 D   3      -2.161  22.622  -8.6530  0.00  0.00     0.000 OA
ATOM     46   O  GU6 D   3      -0.645  22.008 -10.4170  0.00  0.00     0.000 O
ATOM     47   O  GU6 D   3      -0.583  24.239  -9.5250  0.00  0.00     0.000 OA
ENDBRANCH 38 43
BRANCH 39 48
ATOM     48   O  GU6 D   3      -2.302  23.803 -13.7030  0.00  0.00     0.000 O
ATOM     49   S  GU6 D   3      -0.945  23.484 -14.3310  0.00  0.00     0.000 S
ATOM     50   O  GU6 D   3      -1.092  22.432 -15.3440  0.00  0.00     0.000 OA
ATOM     51   O  GU6 D   3      -0.553  24.760 -14.9430  0.00  0.00     0.000 OA
ATOM     52   O  GU6 D   3      -0.018  23.037 -13.2680  0.00  0.00     0.000 O
ENDBRANCH 39 48
BRANCH 41 53
ATOM     53   C  GU6 D   3      -5.753  20.209 -14.0170  0.00  0.00     0.000 C
ATOM     54   O  GU6 D   3      -7.042  20.765 -13.9860  0.00  0.00     0.000 O
ATOM     55   S  GU6 D   3      -8.233  20.003 -14.5830  0.00  0.00     0.000 S
ATOM     56   O  GU6 D   3      -8.429  18.795 -13.7480  0.00  0.00     0.000 O
ATOM     57   O  GU6 D   3      -9.418  20.870 -14.5290  0.00  0.00     0.000 OA
ATOM     58   O  GU6 D   3      -7.869  19.637 -15.9700  0.00  0.00     0.000 OA
ENDBRANCH 41 53
BRANCH 37 59
ATOM     59  O4  Z9K D   4      -5.465  22.900 -10.7560  0.00  0.00     0.000 O
BRANCH 59 63
ATOM     60  C1  Z9K D   4      -5.752  22.451  -6.8620  0.00  0.00     0.000 C
ATOM     61  C2  Z9K D   4      -6.812  21.431  -7.3610  0.00  0.00     0.000 C
ATOM     62  C3  Z9K D   4      -6.563  21.482  -8.9310  0.00  0.00     0.000 C
ATOM     63  C4  Z9K D   4      -6.399  22.881  -9.6380  0.00  0.00     0.000 C
ATOM     64  C5  Z9K D   4      -5.879  24.026  -8.7550  0.00  0.00     0.000 C
ATOM     65  O5  Z9K D   4      -5.006  23.340  -7.8190  0.00  0.00     0.000 O
ATOM     66   O  Z9K D   4      -7.578  20.801  -9.6910  0.00  0.00     0.000 O
ATOM     67   C  Z9K D   4      -7.361  19.407  -9.8400  0.00  0.00     0.000 C
BRANCH 61 68
ATOM     68   O  Z9K D   4      -6.393  20.162  -6.9380  0.00  0.00     0.000 O
ATOM     69   O  Z9K D   4      -8.946  20.330  -6.9770  0.00  0.00     0.000 OA
ATOM     70   S  Z9K D   4      -7.788  20.340  -6.1350  0.00  0.00     0.000 S
ATOM     71   O  Z9K D   4      -7.576  21.208  -5.0170  0.00  0.00     0.000 OA
ATOM     72   O  Z9K D   4      -7.400  19.012  -5.7860  0.00  0.00     0.000 OA
ENDBRANCH 61 68
BRANCH 64 73
ATOM     73   C  Z9K D   4      -5.293  25.163  -9.6190  0.00  0.00     0.000 C
ATOM     74   O  Z9K D   4      -4.110  25.575  -9.4450  0.00  0.00     0.000 O
ATOM     75   O  Z9K D   4      -5.962  25.715 -10.5270  0.00  0.00     0.000 OA
ENDBRANCH 64 73
BRANCH 60 76
ATOM     76  O4  Z9L D   5      -5.893  23.465  -5.8520  0.00  0.00     0.000 O
BRANCH 76 80
ATOM     77  C1  Z9L D   5      -4.157  25.122  -2.6560  0.00  0.00     0.000 C
ATOM     78  C2  Z9L D   5      -4.229  26.254  -3.7910  0.00  0.00     0.000 C
ATOM     79  C3  Z9L D   5      -5.348  25.717  -4.9410  0.00  0.00     0.000 C
ATOM     80  C4  Z9L D   5      -4.939  24.125  -5.0600  0.00  0.00     0.000 C
ATOM     81  C5  Z9L D   5      -4.635  23.026  -3.9200  0.00  0.00     0.000 C
ATOM     82  O5  Z9L D   5      -3.855  23.692  -2.9160  0.00  0.00     0.000 O
ATOM     83   C  Z9L D   5      -5.423  24.257  -0.7750  0.00  0.00     0.000 C
ATOM     84   C  Z9L D   5      -5.423  24.257  -0.7750  0.00  0.00     0.000 C
BRANCH 78 85
ATOM     85   O  Z9L D   5      -4.704  27.423  -3.2050  0.00  0.00     0.000 O
ATOM     86   O  Z9L D   5      -3.657  29.011  -2.8990  0.00  0.00     0.000 OA
ATOM     87   S  Z9L D   5      -3.210  27.854  -3.6130  0.00  0.00     0.000 S
ATOM     88   O  Z9L D   5      -3.083  28.286  -4.9830  0.00  0.00     0.000 OA
ATOM     89   O  Z9L D   5      -2.157  27.312  -2.8250  0.00  0.00     0.000 OA
ENDBRANCH 78 85
BRANCH 79 90
ATOM     90   O  Z9L D   5      -5.044  26.203  -6.2090  0.00  0.00     0.000 O
ATOM     91   S  Z9L D   5      -6.507  26.807  -6.0350  0.00  0.00     0.000 S
ATOM     92   O  Z9L D   5      -6.867  27.647  -4.9230  0.00  0.00     0.000 OA
ATOM     93   O  Z9L D   5      -7.468  25.910  -6.6280  0.00  0.00     0.000 O
ATOM     94   O  Z9L D   5      -6.032  27.663  -7.0740  0.00  0.00     0.000 OA
ENDBRANCH 79 90
BRANCH 81 95
ATOM     95   C  Z9L D   5      -4.151  21.503  -4.4290  0.00  0.00     0.000 C
ATOM     96   S  Z9L D   5      -3.482  19.725  -3.8310  0.00  0.00     0.000 S
ATOM     97   O  Z9L D   5      -3.267  21.218  -3.3790  0.00  0.00     0.000 O
ATOM     98   O  Z9L D   5      -2.777  19.564  -5.0770  0.00  0.00     0.000 OA
ATOM     99   O  Z9L D   5      -4.796  19.207  -3.6510  0.00  0.00     0.000 OA
ATOM    100   O  Z9L D   5      -2.556  19.494  -2.7500  0.00  0.00     0.000 O
ENDBRANCH 81 95
ENDBRANCH 76 80
ENDBRANCH 60 76
ENDBRANCH 59 63
ENDBRANCH 37 59
ENDBRANCH 36 40
ENDBRANCH 23 36
ENDBRANCH 22 26
ENDBRANCH 1 22
TORSDOF 19
ENDMDL
MODEL 53
REMARK VINA RESULT:      -5.7      6.694     14.410
ROOT
ATOM      1  C1  Z9H D   1      32.403  27.274 -22.1800  0.00  0.00     0.000 C
ATOM      2  C2  Z9H D   1      33.359  26.574 -23.1750  0.00  0.00     0.000 C
ATOM      3  C3  Z9H D   1      34.247  27.804 -23.5340  0.00  0.00     0.000 C
ATOM      4  C4  Z9H D   1      33.458  29.112 -23.9550  0.00  0.00     0.000 C
ATOM      5  C5  Z9H D   1      32.230  29.681 -23.1380  0.00  0.00     0.000 C
ATOM      6  O5  Z9H D   1      31.671  28.467 -22.5770  0.00  0.00     0.000 O
ATOM      7   O  Z9H D   1      35.227  27.476 -24.5210  0.00  0.00     0.000 O
ATOM      8   C  Z9H D   1      36.541  27.188 -24.0130  0.00  0.00     0.000 C
ATOM      9   O  Z9H D   1      34.439  30.153 -24.0240  0.00  0.00     0.000 O
ATOM     10   C  Z9H D   1      34.918  30.463 -25.3360  0.00  0.00     0.000 C
ENDROOT
BRANCH 2 11
ATOM     11   O  Z9H D   1      34.148  25.790 -22.3190  0.00  0.00     0.000 O
ATOM     12   O  Z9H D   1      34.118  23.904 -22.2810  0.00  0.00     0.000 OA
ATOM     13   S  Z9H D   1      33.358  24.710 -23.1760  0.00  0.00     0.000 S
ATOM     14   O  Z9H D   1      33.873  24.733 -24.5160  0.00  0.00     0.000 OA
ATOM     15   O  Z9H D   1      31.957  24.670 -22.8250  0.00  0.00     0.000 O
ENDBRANCH 2 11
BRANCH 5 16
ATOM     16   C  Z9H D   1      31.275  30.778 -23.9660  0.00  0.00     0.000 C
ATOM     17   S  Z9H D   1      30.958  31.638 -25.7550  0.00  0.00     0.000 S
ATOM     18   O  Z9H D   1      31.317  30.155 -25.2270  0.00  0.00     0.000 O
ATOM     19   O  Z9H D   1      32.000  32.609 -25.5790  0.00  0.00     0.000 O
ATOM     20   O  Z9H D   1      29.584  31.921 -25.5270  0.00  0.00     0.000 OA
ATOM     21   O  Z9H D   1      31.063  30.961 -27.0140  0.00  0.00     0.000 OA
ENDBRANCH 5 16
BRANCH 1 22
ATOM     22  O4  GU1 D   2      33.042  27.753 -20.9410  0.00  0.00     0.000 O
BRANCH 22 26
ATOM     23  C1  GU1 D   2      32.551  28.267 -16.8840  0.00  0.00     0.000 C
ATOM     24  C2  GU1 D   2      31.863  27.040 -17.4610  0.00  0.00     0.000 C
ATOM     25  C3  GU1 D   2      32.419  26.753 -18.8260  0.00  0.00     0.000 C
ATOM     26  C4  GU1 D   2      32.342  27.987 -19.7140  0.00  0.00     0.000 C
ATOM     27  C5  GU1 D   2      32.968  29.188 -18.9990  0.00  0.00     0.000 C
ATOM     28  O5  GU1 D   2      32.350  29.392 -17.7320  0.00  0.00     0.000 O
ATOM     29   O  GU1 D   2      32.061  25.888 -16.6500  0.00  0.00     0.000 O
ATOM     30   C  GU1 D   2      30.990  25.624 -15.7540  0.00  0.00     0.000 C
ATOM     31   C  GU1 D   2      32.249  24.423 -19.4010  0.00  0.00     0.000 C
ATOM     32   O  GU1 D   2      31.639  25.711 -19.4220  0.00  0.00     0.000 O
BRANCH 27 33
ATOM     33   C  GU1 D   2      32.799  30.453 -19.8060  0.00  0.00     0.000 C
ATOM     34   O  GU1 D   2      31.683  30.915 -19.9290  0.00  0.00     0.000 OA
ATOM     35   O  GU1 D   2      33.766  30.998 -20.3170  0.00  0.00     0.000 O
ENDBRANCH 27 33
BRANCH 23 36
ATOM     36  O4  GU6 D   3      32.030  28.894 -15.6950  0.00  0.00     0.000 O
BRANCH 36 40
ATOM     37  C1  GU6 D   3      30.978  31.425 -12.6650  0.00  0.00     0.000 C
ATOM     38  C2  GU6 D   3      31.969  30.345 -12.2520  0.00  0.00     0.000 C
ATOM     39  C3  GU6 D   3      32.496  29.647 -13.4790  0.00  0.00     0.000 C
ATOM     40  C4  GU6 D   3      31.844  29.938 -14.7610  0.00  0.00     0.000 C
ATOM     41  C5  GU6 D   3      30.303  30.091 -14.5400  0.00  0.00     0.000 C
ATOM     42  O5  GU6 D   3      29.908  30.812 -13.3680  0.00  0.00     0.000 O
BRANCH 38 43
ATOM     43   O  GU6 D   3      33.041  30.907 -11.5190  0.00  0.00     0.000 O
ATOM     44   S  GU6 D   3      33.247  30.297 -10.1390  0.00  0.00     0.000 S
ATOM     45   O  GU6 D   3      32.292  30.918  -9.2050  0.00  0.00     0.000 OA
ATOM     46   O  GU6 D   3      32.982  28.849 -10.2190  0.00  0.00     0.000 O
ATOM     47   O  GU6 D   3      34.627  30.531  -9.7230  0.00  0.00     0.000 OA
ENDBRANCH 38 43
BRANCH 39 48
ATOM     48   O  GU6 D   3      33.711  28.924 -13.4380  0.00  0.00     0.000 O
ATOM     49   S  GU6 D   3      35.126  29.363 -13.8140  0.00  0.00     0.000 S
ATOM     50   O  GU6 D   3      35.496  30.571 -13.0680  0.00  0.00     0.000 OA
ATOM     51   O  GU6 D   3      35.949  28.215 -13.4090  0.00  0.00     0.000 OA
ATOM     52   O  GU6 D   3      35.174  29.632 -15.2690  0.00  0.00     0.000 O
ENDBRANCH 39 48
BRANCH 41 53
ATOM     53   C  GU6 D   3      29.169  29.597 -15.3990  0.00  0.00     0.000 C
ATOM     54   O  GU6 D   3      28.379  29.051 -14.3760  0.00  0.00     0.000 O
ATOM     55   S  GU6 D   3      27.094  28.281 -14.7110  0.00  0.00     0.000 S
ATOM     56   O  GU6 D   3      27.507  27.054 -15.4310  0.00  0.00     0.000 O
ATOM     57   O  GU6 D   3      26.410  27.942 -13.4550  0.00  0.00     0.000 OA
ATOM     58   O  GU6 D   3      26.272  29.156 -15.5780  0.00  0.00     0.000 OA
ENDBRANCH 41 53
BRANCH 37 59
ATOM     59  O4  Z9K D   4      31.319  32.636 -13.3730  0.00  0.00     0.000 O
BRANCH 59 63
ATOM     60  C1  Z9K D   4      32.618  36.313 -13.8600  0.00  0.00     0.000 C
ATOM     61  C2  Z9K D   4      32.500  36.238 -12.3130  0.00  0.00     0.000 C
ATOM     62  C3  Z9K D   4      32.154  34.699 -12.1110  0.00  0.00     0.000 C
ATOM     63  C4  Z9K D   4      31.064  34.030 -13.0330  0.00  0.00     0.000 C
ATOM     64  C5  Z9K D   4      30.862  34.673 -14.4130  0.00  0.00     0.000 C
ATOM     65  O5  Z9K D   4      32.188  35.168 -14.7360  0.00  0.00     0.000 O
ATOM     66   O  Z9K D   4      31.749  34.379 -10.7680  0.00  0.00     0.000 O
ATOM     67   C  Z9K D   4      32.823  34.112  -9.8800  0.00  0.00     0.000 C
BRANCH 61 68
ATOM     68   O  Z9K D   4      33.789  36.423 -11.7930  0.00  0.00     0.000 O
ATOM     69   O  Z9K D   4      32.012  37.411 -10.2380  0.00  0.00     0.000 OA
ATOM     70   S  Z9K D   4      33.007  37.721 -11.2210  0.00  0.00     0.000 S
ATOM     71   O  Z9K D   4      32.874  38.685 -12.2690  0.00  0.00     0.000 OA
ATOM     72   O  Z9K D   4      34.295  37.848 -10.6190  0.00  0.00     0.000 OA
ENDBRANCH 61 68
BRANCH 64 73
ATOM     73   C  Z9K D   4      30.182  33.685 -15.3850  0.00  0.00     0.000 C
ATOM     74   O  Z9K D   4      30.845  33.083 -16.2780  0.00  0.00     0.000 O
ATOM     75   O  Z9K D   4      28.953  33.437 -15.3230  0.00  0.00     0.000 OA
ENDBRANCH 64 73
BRANCH 60 76
ATOM     76  O4  Z9L D   5      32.118  37.329 -14.7470  0.00  0.00     0.000 O
BRANCH 76 80
ATOM     77  C1  Z9L D   5      32.886  39.302 -18.1370  0.00  0.00     0.000 C
ATOM     78  C2  Z9L D   5      31.511  38.506 -18.3580  0.00  0.00     0.000 C
ATOM     79  C3  Z9L D   5      30.956  38.061 -16.8230  0.00  0.00     0.000 C
ATOM     80  C4  Z9L D   5      32.358  37.571 -16.1100  0.00  0.00     0.000 C
ATOM     81  C5  Z9L D   5      33.818  38.254 -16.0740  0.00  0.00     0.000 C
ATOM     82  O5  Z9L D   5      34.055  38.767 -17.3940  0.00  0.00     0.000 O
ATOM     83   C  Z9L D   5      33.715  41.460 -17.3950  0.00  0.00     0.000 C
ATOM     84   C  Z9L D   5      33.715  41.460 -17.3950  0.00  0.00     0.000 C
BRANCH 78 85
ATOM     85   O  Z9L D   5      30.596  39.378 -18.9390  0.00  0.00     0.000 O
ATOM     86   O  Z9L D   5      29.965  39.271 -20.7560  0.00  0.00     0.000 OA
ATOM     87   S  Z9L D   5      30.808  38.306 -20.1180  0.00  0.00     0.000 S
ATOM     88   O  Z9L D   5      29.990  37.126 -19.9840  0.00  0.00     0.000 OA
ATOM     89   O  Z9L D   5      32.045  38.370 -20.8160  0.00  0.00     0.000 OA
ENDBRANCH 78 85
BRANCH 79 90
ATOM     90   O  Z9L D   5      30.215  36.884 -16.8740  0.00  0.00     0.000 O
ATOM     91   S  Z9L D   5      29.149  37.840 -16.1770  0.00  0.00     0.000 S
ATOM     92   O  Z9L D   5      28.721  39.080 -16.7710  0.00  0.00     0.000 OA
ATOM     93   O  Z9L D   5      29.245  37.698 -14.7450  0.00  0.00     0.000 O
ATOM     94   O  Z9L D   5      28.266  36.821 -16.6430  0.00  0.00     0.000 OA
ENDBRANCH 79 90
BRANCH 81 95
ATOM     95   C  Z9L D   5      35.047  37.404 -15.3140  0.00  0.00     0.000 C
ATOM     96   S  Z9L D   5      36.578  36.161 -15.5930  0.00  0.00     0.000 S
ATOM     97   O  Z9L D   5      35.151  36.349 -16.2330  0.00  0.00     0.000 O
ATOM     98   O  Z9L D   5      36.374  35.603 -14.2810  0.00  0.00     0.000 OA
ATOM     99   O  Z9L D   5      37.500  37.224 -15.8120  0.00  0.00     0.000 OA
ATOM    100   O  Z9L D   5      36.621  35.079 -16.5460  0.00  0.00     0.000 O
ENDBRANCH 81 95
ENDBRANCH 76 80
ENDBRANCH 60 76
ENDBRANCH 59 63
ENDBRANCH 37 59
ENDBRANCH 36 40
ENDBRANCH 23 36
ENDBRANCH 22 26
ENDBRANCH 1 22
TORSDOF 19
ENDMDL
MODEL 54
REMARK VINA RESULT:      -5.7     26.986     32.898
ROOT
ATOM      1  C1  Z9H D   1      15.998   1.642 -44.1120  0.00  0.00     0.000 C
ATOM      2  C2  Z9H D   1      16.652   2.255 -45.3740  0.00  0.00     0.000 C
ATOM      3  C3  Z9H D   1      15.350   2.722 -46.0940  0.00  0.00     0.000 C
ATOM      4  C4  Z9H D   1      14.214   1.623 -46.2230  0.00  0.00     0.000 C
ATOM      5  C5  Z9H D   1      13.747   0.717 -45.0160  0.00  0.00     0.000 C
ATOM      6  O5  Z9H D   1      14.967   0.624 -44.2380  0.00  0.00     0.000 O
ATOM      7   O  Z9H D   1      15.632   3.297 -47.3710  0.00  0.00     0.000 O
ATOM      8   C  Z9H D   1      15.679   4.734 -47.4020  0.00  0.00     0.000 C
ATOM      9   O  Z9H D   1      13.058   2.315 -46.7050  0.00  0.00     0.000 O
ATOM     10   C  Z9H D   1      12.813   2.205 -48.1110  0.00  0.00     0.000 C
ENDROOT
BRANCH 2 11
ATOM     11   O  Z9H D   1      17.228   3.429 -44.8630  0.00  0.00     0.000 O
ATOM     12   O  Z9H D   1      19.084   3.753 -44.7900  0.00  0.00     0.000 OA
ATOM     13   S  Z9H D   1      18.485   2.588 -45.3490  0.00  0.00     0.000 S
ATOM     14   O  Z9H D   1      18.486   2.567 -46.7840  0.00  0.00     0.000 OA
ATOM     15   O  Z9H D   1      18.722   1.443 -44.5000  0.00  0.00     0.000 O
ENDBRANCH 2 11
BRANCH 5 16
ATOM     16   C  Z9H D   1      12.883  -0.650 -45.4480  0.00  0.00     0.000 C
ATOM     17   S  Z9H D   1      11.342  -1.833 -44.9350  0.00  0.00     0.000 S
ATOM     18   O  Z9H D   1      11.626  -0.244 -44.9620  0.00  0.00     0.000 O
ATOM     19   O  Z9H D   1      12.103  -2.565 -43.9640  0.00  0.00     0.000 O
ATOM     20   O  Z9H D   1      11.094  -2.309 -46.2510  0.00  0.00     0.000 OA
ATOM     21   O  Z9H D   1      10.098  -1.363 -44.3980  0.00  0.00     0.000 OA
ENDBRANCH 5 16
BRANCH 1 22
ATOM     22  O4  GU1 D   2      15.314   2.610 -43.2370  0.00  0.00     0.000 O
BRANCH 22 26
ATOM     23  C1  GU1 D   2      14.539   3.639 -39.3240  0.00  0.00     0.000 C
ATOM     24  C2  GU1 D   2      15.902   3.004 -39.5610  0.00  0.00     0.000 C
ATOM     25  C3  GU1 D   2      16.214   3.032 -41.0290  0.00  0.00     0.000 C
ATOM     26  C4  GU1 D   2      15.087   2.407 -41.8370  0.00  0.00     0.000 C
ATOM     27  C5  GU1 D   2      13.748   3.043 -41.4490  0.00  0.00     0.000 C
ATOM     28  O5  GU1 D   2      13.534   2.935 -40.0440  0.00  0.00     0.000 O
ATOM     29   O  GU1 D   2      16.937   3.695 -38.8720  0.00  0.00     0.000 O
ATOM     30   C  GU1 D   2      17.284   3.114 -37.6230  0.00  0.00     0.000 C
ATOM     31   C  GU1 D   2      18.584   3.059 -41.4480  0.00  0.00     0.000 C
ATOM     32   O  GU1 D   2      17.409   2.276 -41.2510  0.00  0.00     0.000 O
BRANCH 27 33
ATOM     33   C  GU1 D   2      12.596   2.361 -42.1470  0.00  0.00     0.000 C
ATOM     34   O  GU1 D   2      11.969   2.989 -42.9750  0.00  0.00     0.000 OA
ATOM     35   O  GU1 D   2      12.309   1.204 -41.8840  0.00  0.00     0.000 O
ENDBRANCH 27 33
BRANCH 23 36
ATOM     36  O4  GU6 D   3      13.901   3.516 -38.0370  0.00  0.00     0.000 O
BRANCH 36 40
ATOM     37  C1  GU6 D   3      13.269   3.524 -34.0010  0.00  0.00     0.000 C
ATOM     38  C2  GU6 D   3      12.109   2.953 -34.8070  0.00  0.00     0.000 C
ATOM     39  C3  GU6 D   3      12.542   2.743 -36.2350  0.00  0.00     0.000 C
ATOM     40  C4  GU6 D   3      13.838   3.298 -36.6430  0.00  0.00     0.000 C
ATOM     41  C5  GU6 D   3      14.055   4.683 -35.9480  0.00  0.00     0.000 C
ATOM     42  O5  GU6 D   3      13.653   4.763 -34.5760  0.00  0.00     0.000 O
BRANCH 38 43
ATOM     43   O  GU6 D   3      11.671   1.729 -34.2500  0.00  0.00     0.000 O
ATOM     44   S  GU6 D   3      10.189   1.689 -33.9050  0.00  0.00     0.000 S
ATOM     45   O  GU6 D   3       9.994   2.344 -32.6000  0.00  0.00     0.000 OA
ATOM     46   O  GU6 D   3       9.444   2.429 -34.9400  0.00  0.00     0.000 O
ATOM     47   O  GU6 D   3       9.750   0.297 -33.8720  0.00  0.00     0.000 OA
ENDBRANCH 38 43
BRANCH 39 48
ATOM     48   O  GU6 D   3      11.844   1.851 -37.0820  0.00  0.00     0.000 O
ATOM     49   S  GU6 D   3      12.144   0.394 -37.4340  0.00  0.00     0.000 S
ATOM     50   O  GU6 D   3      12.251  -0.410 -36.2110  0.00  0.00     0.000 OA
ATOM     51   O  GU6 D   3      10.976  -0.003 -38.2310  0.00  0.00     0.000 OA
ATOM     52   O  GU6 D   3      13.415   0.336 -38.1910  0.00  0.00     0.000 O
ENDBRANCH 39 48
BRANCH 41 53
ATOM     53   C  GU6 D   3      14.643   5.946 -36.5170  0.00  0.00     0.000 C
ATOM     54   O  GU6 D   3      14.007   6.856 -35.6590  0.00  0.00     0.000 O
ATOM     55   S  GU6 D   3      14.168   8.368 -35.8700  0.00  0.00     0.000 S
ATOM     56   O  GU6 D   3      13.512   8.692 -37.1570  0.00  0.00     0.000 O
ATOM     57   O  GU6 D   3      13.508   9.069 -34.7590  0.00  0.00     0.000 OA
ATOM     58   O  GU6 D   3      15.620   8.651 -35.9260  0.00  0.00     0.000 OA
ENDBRANCH 41 53
BRANCH 37 59
ATOM     59  O4  Z9K D   4      14.479   2.811 -33.6700  0.00  0.00     0.000 O
BRANCH 59 63
ATOM     60  C1  Z9K D   4      15.392   5.099 -30.6080  0.00  0.00     0.000 C
ATOM     61  C2  Z9K D   4      16.616   5.335 -31.5350  0.00  0.00     0.000 C
ATOM     62  C3  Z9K D   4      16.157   4.557 -32.8440  0.00  0.00     0.000 C
ATOM     63  C4  Z9K D   4      15.522   3.121 -32.7010  0.00  0.00     0.000 C
ATOM     64  C5  Z9K D   4      14.828   2.821 -31.3640  0.00  0.00     0.000 C
ATOM     65  O5  Z9K D   4      14.310   4.119 -30.9710  0.00  0.00     0.000 O
ATOM     66   O  Z9K D   4      17.211   4.400 -33.8110  0.00  0.00     0.000 O
ATOM     67   C  Z9K D   4      17.369   5.503 -34.6880  0.00  0.00     0.000 C
BRANCH 61 68
ATOM     68   O  Z9K D   4      16.623   6.696 -31.8680  0.00  0.00     0.000 O
ATOM     69   O  Z9K D   4      19.004   5.773 -31.6930  0.00  0.00     0.000 OA
ATOM     70   S  Z9K D   4      18.000   6.549 -31.0280  0.00  0.00     0.000 S
ATOM     71   O  Z9K D   4      17.692   6.498 -29.6320  0.00  0.00     0.000 OA
ATOM     72   O  Z9K D   4      18.044   7.911 -31.4560  0.00  0.00     0.000 OA
ENDBRANCH 61 68
BRANCH 64 73
ATOM     73   C  Z9K D   4      13.843   1.642 -31.5090  0.00  0.00     0.000 C
ATOM     74   O  Z9K D   4      12.647   1.732 -31.1040  0.00  0.00     0.000 O
ATOM     75   O  Z9K D   4      14.184   0.556 -32.0390  0.00  0.00     0.000 OA
ENDBRANCH 64 73
BRANCH 60 76
ATOM     76  O4  Z9L D   5      15.380   4.768 -29.2080  0.00  0.00     0.000 O
BRANCH 76 80
ATOM     77  C1  Z9L D   5      13.440   5.390 -25.7700  0.00  0.00     0.000 C
ATOM     78  C2  Z9L D   5      13.336   3.822 -26.0910  0.00  0.00     0.000 C
ATOM     79  C3  Z9L D   5      14.514   3.487 -27.2580  0.00  0.00     0.000 C
ATOM     80  C4  Z9L D   5      14.344   4.783 -28.2600  0.00  0.00     0.000 C
ATOM     81  C5  Z9L D   5      14.215   6.357 -27.9340  0.00  0.00     0.000 C
ATOM     82  O5  Z9L D   5      13.351   6.464 -26.7930  0.00  0.00     0.000 O
ATOM     83   C  Z9L D   5      14.834   6.981 -24.5790  0.00  0.00     0.000 C
ATOM     84   C  Z9L D   5      14.834   6.981 -24.5790  0.00  0.00     0.000 C
BRANCH 78 85
ATOM     85   O  Z9L D   5      13.636   3.122 -24.9260  0.00  0.00     0.000 O
ATOM     86   O  Z9L D   5      12.400   2.009 -23.9540  0.00  0.00     0.000 OA
ATOM     87   S  Z9L D   5      12.135   2.629 -25.2170  0.00  0.00     0.000 S
ATOM     88   O  Z9L D   5      12.053   1.539 -26.1580  0.00  0.00     0.000 OA
ATOM     89   O  Z9L D   5      11.098   3.569 -24.9620  0.00  0.00     0.000 OA
ENDBRANCH 78 85
BRANCH 79 90
ATOM     90   O  Z9L D   5      14.133   2.424 -28.0720  0.00  0.00     0.000 O
ATOM     91   S  Z9L D   5      15.550   1.889 -27.5820  0.00  0.00     0.000 S
ATOM     92   O  Z9L D   5      15.881   1.749 -26.1880  0.00  0.00     0.000 OA
ATOM     93   O  Z9L D   5      16.556   2.248 -28.5500  0.00  0.00     0.000 O
ATOM     94   O  Z9L D   5      14.978   0.653 -28.0060  0.00  0.00     0.000 OA
ENDBRANCH 79 90
BRANCH 81 95
ATOM     95   C  Z9L D   5      13.959   7.392 -29.2290  0.00  0.00     0.000 C
ATOM     96   S  Z9L D   5      12.930   8.973 -29.8690  0.00  0.00     0.000 S
ATOM     97   O  Z9L D   5      12.628   7.733 -28.9470  0.00  0.00     0.000 O
ATOM     98   O  Z9L D   5      12.996   8.478 -31.2200  0.00  0.00     0.000 OA
ATOM     99   O  Z9L D   5      13.892   9.896 -29.3700  0.00  0.00     0.000 OA
ATOM    100   O  Z9L D   5      11.552   9.263 -29.5570  0.00  0.00     0.000 O
ENDBRANCH 81 95
ENDBRANCH 76 80
ENDBRANCH 60 76
ENDBRANCH 59 63
ENDBRANCH 37 59
ENDBRANCH 36 40
ENDBRANCH 23 36
ENDBRANCH 22 26
ENDBRANCH 1 22
TORSDOF 19
ENDMDL
MODEL 55
REMARK VINA RESULT:      -5.6     32.364     38.465
ROOT
ATOM      1  C1  Z9H D   1      -4.088  23.355 -21.2170  0.00  0.00     0.000 C
ATOM      2  C2  Z9H D   1      -4.978  23.435 -22.4800  0.00  0.00     0.000 C
ATOM      3  C3  Z9H D   1      -5.075  21.908 -22.7810  0.00  0.00     0.000 C
ATOM      4  C4  Z9H D   1      -3.693  21.132 -22.8130  0.00  0.00     0.000 C
ATOM      5  C5  Z9H D   1      -2.588  21.290 -21.6940  0.00  0.00     0.000 C
ATOM      6  O5  Z9H D   1      -2.814  22.654 -21.2570  0.00  0.00     0.000 O
ATOM      7   O  Z9H D   1      -5.815  21.652 -23.9760  0.00  0.00     0.000 O
ATOM      8   C  Z9H D   1      -7.192  21.289 -23.7810  0.00  0.00     0.000 C
ATOM      9   O  Z9H D   1      -4.028  19.743 -22.8830  0.00  0.00     0.000 O
ATOM     10   C  Z9H D   1      -3.967  19.158 -24.1870  0.00  0.00     0.000 C
ENDROOT
BRANCH 2 11
ATOM     11   O  Z9H D   1      -6.225  23.781 -21.9370  0.00  0.00     0.000 O
ATOM     12   O  Z9H D   1      -7.110  25.413 -22.2690  0.00  0.00     0.000 OA
ATOM     13   S  Z9H D   1      -5.867  25.030 -22.8510  0.00  0.00     0.000 S
ATOM     14   O  Z9H D   1      -5.970  24.628 -24.2250  0.00  0.00     0.000 OA
ATOM     15   O  Z9H D   1      -4.787  25.809 -22.2910  0.00  0.00     0.000 O
ENDBRANCH 2 11
BRANCH 5 16
ATOM     16   C  Z9H D   1      -1.062  20.755 -22.1240  0.00  0.00     0.000 C
ATOM     17   S  Z9H D   1       0.181  20.449 -23.6740  0.00  0.00     0.000 S
ATOM     18   O  Z9H D   1      -0.872  21.593 -23.2390  0.00  0.00     0.000 O
ATOM     19   O  Z9H D   1      -0.409  19.188 -24.0210  0.00  0.00     0.000 O
ATOM     20   O  Z9H D   1       1.376  20.568 -22.9150  0.00  0.00     0.000 OA
ATOM     21   O  Z9H D   1       0.295  21.317 -24.8090  0.00  0.00     0.000 OA
ENDBRANCH 5 16
BRANCH 1 22
ATOM     22  O4  GU1 D   2      -4.717  22.700 -20.0570  0.00  0.00     0.000 O
BRANCH 22 26
ATOM     23  C1  GU1 D   2      -5.203  22.820 -15.9680  0.00  0.00     0.000 C
ATOM     24  C2  GU1 D   2      -5.132  24.181 -16.6440  0.00  0.00     0.000 C
ATOM     25  C3  GU1 D   2      -5.342  24.014 -18.1210  0.00  0.00     0.000 C
ATOM     26  C4  GU1 D   2      -4.380  22.983 -18.6930  0.00  0.00     0.000 C
ATOM     27  C5  GU1 D   2      -4.454  21.688 -17.8790  0.00  0.00     0.000 C
ATOM     28  O5  GU1 D   2      -4.210  21.951 -16.5000  0.00  0.00     0.000 O
ATOM     29   O  GU1 D   2      -6.126  25.072 -16.1510  0.00  0.00     0.000 O
ATOM     30   C  GU1 D   2      -5.659  25.951 -15.1380  0.00  0.00     0.000 C
ATOM     31   C  GU1 D   2      -6.267  25.992 -19.1330  0.00  0.00     0.000 C
ATOM     32   O  GU1 D   2      -5.096  25.272 -18.7570  0.00  0.00     0.000 O
BRANCH 27 33
ATOM     33   C  GU1 D   2      -3.425  20.687 -18.3490  0.00  0.00     0.000 C
ATOM     34   O  GU1 D   2      -2.250  20.965 -18.2230  0.00  0.00     0.000 OA
ATOM     35   O  GU1 D   2      -3.771  19.624 -18.8380  0.00  0.00     0.000 O
ENDBRANCH 27 33
BRANCH 23 36
ATOM     36  O4  GU6 D   3      -4.792  22.676 -14.5930  0.00  0.00     0.000 O
BRANCH 36 40
ATOM     37  C1  GU6 D   3      -4.620  24.322 -10.8580  0.00  0.00     0.000 C
ATOM     38  C2  GU6 D   3      -5.987  24.438 -11.5230  0.00  0.00     0.000 C
ATOM     39  C3  GU6 D   3      -6.022  23.575 -12.7570  0.00  0.00     0.000 C
ATOM     40  C4  GU6 D   3      -4.758  22.990 -13.2160  0.00  0.00     0.000 C
ATOM     41  C5  GU6 D   3      -3.599  24.020 -13.0070  0.00  0.00     0.000 C
ATOM     42  O5  GU6 D   3      -3.631  24.755 -11.7790  0.00  0.00     0.000 O
BRANCH 38 43
ATOM     43   O  GU6 D   3      -7.010  24.044 -10.6290  0.00  0.00     0.000 O
ATOM     44   S  GU6 D   3      -8.048  25.123 -10.3460  0.00  0.00     0.000 S
ATOM     45   O  GU6 D   3      -7.510  26.032  -9.3190  0.00  0.00     0.000 OA
ATOM     46   O  GU6 D   3      -8.293  25.877 -11.5890  0.00  0.00     0.000 O
ATOM     47   O  GU6 D   3      -9.280  24.483  -9.8980  0.00  0.00     0.000 OA
ENDBRANCH 38 43
BRANCH 39 48
ATOM     48   O  GU6 D   3      -7.253  23.155 -13.3140  0.00  0.00     0.000 O
ATOM     49   S  GU6 D   3      -7.993  21.827 -13.1670  0.00  0.00     0.000 S
ATOM     50   O  GU6 D   3      -8.214  21.525 -11.7480  0.00  0.00     0.000 OA
ATOM     51   O  GU6 D   3      -9.264  22.075 -13.8610  0.00  0.00     0.000 OA
ATOM     52   O  GU6 D   3      -7.186  20.756 -13.7930  0.00  0.00     0.000 O
ENDBRANCH 39 48
BRANCH 41 53
ATOM     53   C  GU6 D   3      -2.439  24.338 -13.9120  0.00  0.00     0.000 C
ATOM     54   O  GU6 D   3      -1.474  23.545 -13.2710  0.00  0.00     0.000 O
ATOM     55   S  GU6 D   3      -0.010  23.577 -13.7310  0.00  0.00     0.000 S
ATOM     56   O  GU6 D   3       0.501  24.935 -13.4340  0.00  0.00     0.000 O
ATOM     57   O  GU6 D   3       0.740  22.562 -12.9770  0.00  0.00     0.000 OA
ATOM     58   O  GU6 D   3      -0.002  23.313 -15.1870  0.00  0.00     0.000 OA
ENDBRANCH 41 53
BRANCH 37 59
ATOM     59  O4  Z9K D   4      -4.113  23.137 -10.2080  0.00  0.00     0.000 O
BRANCH 59 63
ATOM     60  C1  Z9K D   4      -4.173  21.445  -6.6610  0.00  0.00     0.000 C
ATOM     61  C2  Z9K D   4      -3.903  22.928  -6.2830  0.00  0.00     0.000 C
ATOM     62  C3  Z9K D   4      -4.063  23.634  -7.6990  0.00  0.00     0.000 C
ATOM     63  C4  Z9K D   4      -3.374  22.989  -8.9610  0.00  0.00     0.000 C
ATOM     64  C5  Z9K D   4      -3.136  21.472  -8.8990  0.00  0.00     0.000 C
ATOM     65  O5  Z9K D   4      -4.252  21.004  -8.0970  0.00  0.00     0.000 O
ATOM     66   O  Z9K D   4      -3.629  25.006  -7.7020  0.00  0.00     0.000 O
ATOM     67   C  Z9K D   4      -4.617  25.934  -7.2820  0.00  0.00     0.000 C
BRANCH 61 68
ATOM     68   O  Z9K D   4      -4.986  23.358  -5.5050  0.00  0.00     0.000 O
ATOM     69   O  Z9K D   4      -2.833  24.574  -4.8470  0.00  0.00     0.000 OA
ATOM     70   S  Z9K D   4      -3.745  23.534  -4.4780  0.00  0.00     0.000 S
ATOM     71   O  Z9K D   4      -3.384  22.250  -3.9590  0.00  0.00     0.000 OA
ATOM     72   O  Z9K D   4      -4.840  24.059  -3.7290  0.00  0.00     0.000 OA
ENDBRANCH 61 68
BRANCH 64 73
ATOM     73   C  Z9K D   4      -2.942  20.888 -10.3140  0.00  0.00     0.000 C
ATOM     74   O  Z9K D   4      -3.815  20.137 -10.8380  0.00  0.00     0.000 O
ATOM     75   O  Z9K D   4      -1.920  21.139 -10.9980  0.00  0.00     0.000 OA
ENDBRANCH 64 73
BRANCH 60 76
ATOM     76  O4  Z9L D   5      -3.475  20.268  -6.2190  0.00  0.00     0.000 O
BRANCH 76 80
ATOM     77  C1  Z9L D   5      -3.982  16.645  -4.6120  0.00  0.00     0.000 C
ATOM     78  C2  Z9L D   5      -3.315  16.430  -6.0540  0.00  0.00     0.000 C
ATOM     79  C3  Z9L D   5      -2.687  17.927  -6.5270  0.00  0.00     0.000 C
ATOM     80  C4  Z9L D   5      -3.902  18.939  -6.0660  0.00  0.00     0.000 C
ATOM     81  C5  Z9L D   5      -4.745  19.018  -4.6930  0.00  0.00     0.000 C
ATOM     82  O5  Z9L D   5      -5.022  17.662  -4.3110  0.00  0.00     0.000 O
ATOM     83   C  Z9L D   5      -3.375  16.938  -2.2800  0.00  0.00     0.000 C
ATOM     84   C  Z9L D   5      -3.375  16.938  -2.2800  0.00  0.00     0.000 C
BRANCH 78 85
ATOM     85   O  Z9L D   5      -2.270  15.520  -5.9150  0.00  0.00     0.000 O
ATOM     86   O  Z9L D   5      -2.286  13.708  -6.5680  0.00  0.00     0.000 OA
ATOM     87   S  Z9L D   5      -3.304  14.683  -6.8170  0.00  0.00     0.000 S
ATOM     88   O  Z9L D   5      -3.209  14.970  -8.2270  0.00  0.00     0.000 OA
ATOM     89   O  Z9L D   5      -4.464  14.190  -6.1590  0.00  0.00     0.000 OA
ENDBRANCH 78 85
BRANCH 79 90
ATOM     90   O  Z9L D   5      -2.689  18.064  -7.9120  0.00  0.00     0.000 O
ATOM     91   S  Z9L D   5      -1.124  18.174  -7.6350  0.00  0.00     0.000 S
ATOM     92   O  Z9L D   5      -0.392  17.152  -6.9350  0.00  0.00     0.000 OA
ATOM     93   O  Z9L D   5      -0.757  19.563  -7.5160  0.00  0.00     0.000 O
ATOM     94   O  Z9L D   5      -1.085  17.845  -9.0240  0.00  0.00     0.000 OA
ENDBRANCH 79 90
BRANCH 81 95
ATOM     95   C  Z9L D   5      -5.990  20.139  -4.6180  0.00  0.00     0.000 C
ATOM     96   S  Z9L D   5      -7.956  20.401  -4.8020  0.00  0.00     0.000 S
ATOM     97   O  Z9L D   5      -6.867  19.517  -5.5180  0.00  0.00     0.000 O
ATOM     98   O  Z9L D   5      -7.742  21.757  -5.2390  0.00  0.00     0.000 OA
ATOM     99   O  Z9L D   5      -8.201  20.093  -3.4330  0.00  0.00     0.000 OA
ATOM    100   O  Z9L D   5      -8.807  19.742  -5.7620  0.00  0.00     0.000 O
ENDBRANCH 81 95
ENDBRANCH 76 80
ENDBRANCH 60 76
ENDBRANCH 59 63
ENDBRANCH 37 59
ENDBRANCH 36 40
ENDBRANCH 23 36
ENDBRANCH 22 26
ENDBRANCH 1 22
TORSDOF 19
ENDMDL
MODEL 56
REMARK VINA RESULT:      -5.6     32.606     39.151
ROOT
ATOM      1  C1  Z9H D   1      23.839  10.122 -46.9340  0.00  0.00     0.000 C
ATOM      2  C2  Z9H D   1      23.890  11.128 -45.7600  0.00  0.00     0.000 C
ATOM      3  C3  Z9H D   1      22.820  12.135 -46.2830  0.00  0.00     0.000 C
ATOM      4  C4  Z9H D   1      23.021  12.624 -47.7770  0.00  0.00     0.000 C
ATOM      5  C5  Z9H D   1      23.319  11.639 -48.9760  0.00  0.00     0.000 C
ATOM      6  O5  Z9H D   1      24.038  10.575 -48.3020  0.00  0.00     0.000 O
ATOM      7   O  Z9H D   1      22.679  13.255 -45.4080  0.00  0.00     0.000 O
ATOM      8   C  Z9H D   1      21.575  13.185 -44.4900  0.00  0.00     0.000 C
ATOM      9   O  Z9H D   1      21.833  13.349 -48.1120  0.00  0.00     0.000 O
ATOM     10   C  Z9H D   1      21.932  14.773 -48.0200  0.00  0.00     0.000 C
ENDROOT
BRANCH 2 11
ATOM     11   O  Z9H D   1      23.250  10.414 -44.7350  0.00  0.00     0.000 O
ATOM     12   O  Z9H D   1      24.126   9.735 -43.2090  0.00  0.00     0.000 OA
ATOM     13   S  Z9H D   1      24.754  10.502 -44.2320  0.00  0.00     0.000 S
ATOM     14   O  Z9H D   1      25.025  11.860 -43.8550  0.00  0.00     0.000 OA
ATOM     15   O  Z9H D   1      25.630   9.667 -45.0220  0.00  0.00     0.000 O
ENDBRANCH 2 11
BRANCH 5 16
ATOM     16   C  Z9H D   1      23.931  12.365 -50.3550  0.00  0.00     0.000 C
ATOM     17   S  Z9H D   1      25.516  12.446 -51.5870  0.00  0.00     0.000 S
ATOM     18   O  Z9H D   1      24.706  11.284 -50.8130  0.00  0.00     0.000 O
ATOM     19   O  Z9H D   1      26.252  13.337 -50.7370  0.00  0.00     0.000 O
ATOM     20   O  Z9H D   1      24.782  12.882 -52.7230  0.00  0.00     0.000 OA
ATOM     21   O  Z9H D   1      26.300  11.312 -51.9820  0.00  0.00     0.000 OA
ENDBRANCH 5 16
BRANCH 1 22
ATOM     22  O4  GU1 D   2      22.563   9.399 -47.0750  0.00  0.00     0.000 O
BRANCH 22 26
ATOM     23  C1  GU1 D   2      20.710   5.904 -48.2230  0.00  0.00     0.000 C
ATOM     24  C2  GU1 D   2      21.894   5.722 -47.2870  0.00  0.00     0.000 C
ATOM     25  C3  GU1 D   2      22.231   7.038 -46.6490  0.00  0.00     0.000 C
ATOM     26  C4  GU1 D   2      22.429   8.118 -47.7020  0.00  0.00     0.000 C
ATOM     27  C5  GU1 D   2      21.230   8.148 -48.6550  0.00  0.00     0.000 C
ATOM     28  O5  GU1 D   2      21.017   6.862 -49.2290  0.00  0.00     0.000 O
ATOM     29   O  GU1 D   2      21.616   4.785 -46.2530  0.00  0.00     0.000 O
ATOM     30   C  GU1 D   2      22.088   3.473 -46.5230  0.00  0.00     0.000 C
ATOM     31   C  GU1 D   2      23.287   6.761 -44.5040  0.00  0.00     0.000 C
ATOM     32   O  GU1 D   2      23.450   6.887 -45.9140  0.00  0.00     0.000 O
BRANCH 27 33
ATOM     33   C  GU1 D   2      21.452   9.128 -49.7820  0.00  0.00     0.000 C
ATOM     34   O  GU1 D   2      20.979  10.242 -49.6820  0.00  0.00     0.000 OA
ATOM     35   O  GU1 D   2      22.095   8.804 -50.7690  0.00  0.00     0.000 O
ENDBRANCH 27 33
BRANCH 23 36
ATOM     36  O4  GU6 D   3      20.346   4.851 -49.1390  0.00  0.00     0.000 O
BRANCH 36 40
ATOM     37  C1  GU6 D   3      18.485   2.620 -52.0120  0.00  0.00     0.000 C
ATOM     38  C2  GU6 D   3      17.528   3.324 -51.0580  0.00  0.00     0.000 C
ATOM     39  C3  GU6 D   3      18.288   4.321 -50.2240  0.00  0.00     0.000 C
ATOM     40  C4  GU6 D   3      19.753   4.291 -50.2930  0.00  0.00     0.000 C
ATOM     41  C5  GU6 D   3      20.242   2.808 -50.3890  0.00  0.00     0.000 C
ATOM     42  O5  GU6 D   3      19.477   1.953 -51.2460  0.00  0.00     0.000 O
BRANCH 38 43
ATOM     43   O  GU6 D   3      16.501   3.979 -51.7780  0.00  0.00     0.000 O
ATOM     44   S  GU6 D   3      15.173   3.233 -51.8000  0.00  0.00     0.000 S
ATOM     45   O  GU6 D   3      15.235   2.198 -52.8450  0.00  0.00     0.000 OA
ATOM     46   O  GU6 D   3      14.972   2.593 -50.4870  0.00  0.00     0.000 O
ATOM     47   O  GU6 D   3      14.101   4.189 -52.0600  0.00  0.00     0.000 OA
ENDBRANCH 38 43
BRANCH 39 48
ATOM     48   O  GU6 D   3      17.621   5.392 -49.5830  0.00  0.00     0.000 O
ATOM     49   S  GU6 D   3      16.830   5.413 -48.2760  0.00  0.00     0.000 S
ATOM     50   O  GU6 D   3      17.657   4.904 -47.1760  0.00  0.00     0.000 OA
ATOM     51   O  GU6 D   3      16.523   6.838 -48.0950  0.00  0.00     0.000 OA
ATOM     52   O  GU6 D   3      15.622   4.571 -48.4320  0.00  0.00     0.000 O
ENDBRANCH 39 48
BRANCH 41 53
ATOM     53   C  GU6 D   3      21.417   2.152 -49.7160  0.00  0.00     0.000 C
ATOM     54   O  GU6 D   3      21.762   1.269 -50.7520  0.00  0.00     0.000 O
ATOM     55   S  GU6 D   3      22.877   0.234 -50.5530  0.00  0.00     0.000 S
ATOM     56   O  GU6 D   3      22.400  -0.717 -49.5230  0.00  0.00     0.000 O
ATOM     57   O  GU6 D   3      23.108  -0.456 -51.8300  0.00  0.00     0.000 OA
ATOM     58   O  GU6 D   3      24.077   0.966 -50.0880  0.00  0.00     0.000 OA
ENDBRANCH 41 53
BRANCH 37 59
ATOM     59  O4  Z9K D   4      19.153   3.247 -53.1270  0.00  0.00     0.000 O
BRANCH 59 63
ATOM     60  C1  Z9K D   4      16.358   3.965 -55.7950  0.00  0.00     0.000 C
ATOM     61  C2  Z9K D   4      16.756   2.508 -56.1600  0.00  0.00     0.000 C
ATOM     62  C3  Z9K D   4      17.750   2.159 -54.9690  0.00  0.00     0.000 C
ATOM     63  C4  Z9K D   4      18.847   3.211 -54.5510  0.00  0.00     0.000 C
ATOM     64  C5  Z9K D   4      18.523   4.681 -54.8550  0.00  0.00     0.000 C
ATOM     65  O5  Z9K D   4      17.078   4.728 -54.7170  0.00  0.00     0.000 O
ATOM     66   O  Z9K D   4      18.472   0.932 -55.1720  0.00  0.00     0.000 O
ATOM     67   C  Z9K D   4      17.780  -0.233 -54.7530  0.00  0.00     0.000 C
BRANCH 61 68
ATOM     68   O  Z9K D   4      15.619   1.712 -55.9700  0.00  0.00     0.000 O
ATOM     69   O  Z9K D   4      17.116   0.763 -57.8160  0.00  0.00     0.000 OA
ATOM     70   S  Z9K D   4      15.917   1.499 -57.5480  0.00  0.00     0.000 S
ATOM     71   O  Z9K D   4      15.464   2.649 -58.2670  0.00  0.00     0.000 OA
ATOM     72   O  Z9K D   4      14.818   0.617 -57.3210  0.00  0.00     0.000 OA
ENDBRANCH 61 68
BRANCH 64 73
ATOM     73   C  Z9K D   4      19.382   5.624 -53.9870  0.00  0.00     0.000 C
ATOM     74   O  Z9K D   4      20.639   5.673 -54.1190  0.00  0.00     0.000 O
ATOM     75   O  Z9K D   4      18.870   6.379 -53.1240  0.00  0.00     0.000 OA
ENDBRANCH 64 73
BRANCH 60 76
ATOM     76  O4  Z9L D   5      16.223   5.100 -56.6670  0.00  0.00     0.000 O
BRANCH 76 80
ATOM     77  C1  Z9L D   5      13.870   8.124 -57.8020  0.00  0.00     0.000 C
ATOM     78  C2  Z9L D   5      15.107   8.765 -57.0080  0.00  0.00     0.000 C
ATOM     79  C3  Z9L D   5      16.306   7.574 -56.9350  0.00  0.00     0.000 C
ATOM     80  C4  Z9L D   5      15.405   6.239 -56.5880  0.00  0.00     0.000 C
ATOM     81  C5  Z9L D   5      14.026   5.702 -57.2290  0.00  0.00     0.000 C
ATOM     82  O5  Z9L D   5      13.195   6.856 -57.4240  0.00  0.00     0.000 O
ATOM     83   C  Z9L D   5      13.181   7.530 -60.0530  0.00  0.00     0.000 C
ATOM     84   C  Z9L D   5      13.181   7.530 -60.0530  0.00  0.00     0.000 C
BRANCH 78 85
ATOM     85   O  Z9L D   5      15.581   9.845 -57.7450  0.00  0.00     0.000 O
ATOM     86   O  Z9L D   5      15.498  11.687 -57.1880  0.00  0.00     0.000 OA
ATOM     87   S  Z9L D   5      15.128  10.565 -56.3820  0.00  0.00     0.000 S
ATOM     88   O  Z9L D   5      16.121  10.510 -55.3370  0.00  0.00     0.000 OA
ATOM     89   O  Z9L D   5      13.727  10.700 -56.1730  0.00  0.00     0.000 OA
ENDBRANCH 78 85
BRANCH 79 90
ATOM     90   O  Z9L D   5      17.091   7.714 -55.7930  0.00  0.00     0.000 O
ATOM     91   S  Z9L D   5      18.204   7.931 -56.9110  0.00  0.00     0.000 S
ATOM     92   O  Z9L D   5      18.088   8.942 -57.9290  0.00  0.00     0.000 OA
ATOM     93   O  Z9L D   5      18.857   6.675 -57.1850  0.00  0.00     0.000 O
ATOM     94   O  Z9L D   5      18.879   8.523 -55.8020  0.00  0.00     0.000 OA
ENDBRANCH 79 90
BRANCH 81 95
ATOM     95   C  Z9L D   5      13.343   4.331 -56.5460  0.00  0.00     0.000 C
ATOM     96   S  Z9L D   5      11.690   3.226 -56.4250  0.00  0.00     0.000 S
ATOM     97   O  Z9L D   5      12.009   4.764 -56.5330  0.00  0.00     0.000 O
ATOM     98   O  Z9L D   5      12.051   2.821 -55.0900  0.00  0.00     0.000 OA
ATOM     99   O  Z9L D   5      12.042   2.440 -57.5590  0.00  0.00     0.000 OA
ATOM    100   O  Z9L D   5      10.340   3.731 -56.3990  0.00  0.00     0.000 O
ENDBRANCH 81 95
ENDBRANCH 76 80
ENDBRANCH 60 76
ENDBRANCH 59 63
ENDBRANCH 37 59
ENDBRANCH 36 40
ENDBRANCH 23 36
ENDBRANCH 22 26
ENDBRANCH 1 22
TORSDOF 19
ENDMDL
MODEL 57
REMARK VINA RESULT:      -5.6     20.026     27.238
ROOT
ATOM      1  C1  Z9H D   1      28.654  42.891  -3.1550  0.00  0.00     0.000 C
ATOM      2  C2  Z9H D   1      27.907  42.233  -1.9700  0.00  0.00     0.000 C
ATOM      3  C3  Z9H D   1      26.512  42.893  -2.1920  0.00  0.00     0.000 C
ATOM      4  C4  Z9H D   1      26.526  44.468  -2.3660  0.00  0.00     0.000 C
ATOM      5  C5  Z9H D   1      27.527  45.223  -3.3290  0.00  0.00     0.000 C
ATOM      6  O5  Z9H D   1      28.675  44.338  -3.3010  0.00  0.00     0.000 O
ATOM      7   O  Z9H D   1      25.582  42.514  -1.1760  0.00  0.00     0.000 O
ATOM      8   C  Z9H D   1      24.683  41.449  -1.5310  0.00  0.00     0.000 C
ATOM      9   O  Z9H D   1      25.200  44.827  -2.7700  0.00  0.00     0.000 O
ATOM     10   C  Z9H D   1      24.349  45.317  -1.7290  0.00  0.00     0.000 C
ENDROOT
BRANCH 2 11
ATOM     11   O  Z9H D   1      27.761  40.910  -2.4140  0.00  0.00     0.000 O
ATOM     12   O  Z9H D   1      28.716  39.444  -1.7100  0.00  0.00     0.000 OA
ATOM     13   S  Z9H D   1      28.819  40.783  -1.2360  0.00  0.00     0.000 S
ATOM     14   O  Z9H D   1      28.140  41.012   0.0070  0.00  0.00     0.000 OA
ATOM     15   O  Z9H D   1      30.097  41.350  -1.6030  0.00  0.00     0.000 O
ENDBRANCH 2 11
BRANCH 5 16
ATOM     16   C  Z9H D   1      27.685  46.864  -3.0420  0.00  0.00     0.000 C
ATOM     17   S  Z9H D   1      27.590  48.683  -3.8910  0.00  0.00     0.000 S
ATOM     18   O  Z9H D   1      26.738  47.315  -3.9810  0.00  0.00     0.000 O
ATOM     19   O  Z9H D   1      28.916  48.604  -4.4340  0.00  0.00     0.000 O
ATOM     20   O  Z9H D   1      27.280  49.377  -2.6900  0.00  0.00     0.000 OA
ATOM     21   O  Z9H D   1      26.628  49.071  -4.8810  0.00  0.00     0.000 OA
ENDBRANCH 5 16
BRANCH 1 22
ATOM     22  O4  GU1 D   2      28.169  42.494  -4.4880  0.00  0.00     0.000 O
BRANCH 22 26
ATOM     23  C1  GU1 D   2      29.237  41.963  -8.4310  0.00  0.00     0.000 C
ATOM     24  C2  GU1 D   2      30.334  41.653  -7.4240  0.00  0.00     0.000 C
ATOM     25  C3  GU1 D   2      29.729  41.510  -6.0580  0.00  0.00     0.000 C
ATOM     26  C4  GU1 D   2      28.886  42.727  -5.7070  0.00  0.00     0.000 C
ATOM     27  C5  GU1 D   2      27.885  43.014  -6.8310  0.00  0.00     0.000 C
ATOM     28  O5  GU1 D   2      28.563  43.164  -8.0750  0.00  0.00     0.000 O
ATOM     29   O  GU1 D   2      31.017  40.445  -7.7360  0.00  0.00     0.000 O
ATOM     30   C  GU1 D   2      32.227  40.638  -8.4550  0.00  0.00     0.000 C
ATOM     31   C  GU1 D   2      31.035  40.074  -4.6350  0.00  0.00     0.000 C
ATOM     32   O  GU1 D   2      30.789  41.398  -5.1030  0.00  0.00     0.000 O
BRANCH 27 33
ATOM     33   C  GU1 D   2      27.116  44.287  -6.5660  0.00  0.00     0.000 C
ATOM     34   O  GU1 D   2      25.967  44.199  -6.1860  0.00  0.00     0.000 OA
ATOM     35   O  GU1 D   2      27.644  45.376  -6.7280  0.00  0.00     0.000 O
ENDBRANCH 27 33
BRANCH 23 36
ATOM     36  O4  GU6 D   3      29.582  42.387  -9.7650  0.00  0.00     0.000 O
BRANCH 36 40
ATOM     37  C1  GU6 D   3      30.414  44.687 -13.0380  0.00  0.00     0.000 C
ATOM     38  C2  GU6 D   3      30.147  43.223 -13.3630  0.00  0.00     0.000 C
ATOM     39  C3  GU6 D   3      29.590  42.529 -12.1470  0.00  0.00     0.000 C
ATOM     40  C4  GU6 D   3      29.612  43.261 -10.8760  0.00  0.00     0.000 C
ATOM     41  C5  GU6 D   3      30.934  44.091 -10.7730  0.00  0.00     0.000 C
ATOM     42  O5  GU6 D   3      31.352  44.750 -11.9740  0.00  0.00     0.000 O
BRANCH 38 43
ATOM     43   O  GU6 D   3      29.238  43.111 -14.4410  0.00  0.00     0.000 O
ATOM     44   S  GU6 D   3      29.897  42.976 -15.8080  0.00  0.00     0.000 S
ATOM     45   O  GU6 D   3      30.279  44.319 -16.2780  0.00  0.00     0.000 OA
ATOM     46   O  GU6 D   3      31.106  42.144 -15.6670  0.00  0.00     0.000 O
ATOM     47   O  GU6 D   3      28.956  42.339 -16.7240  0.00  0.00     0.000 OA
ENDBRANCH 38 43
BRANCH 39 48
ATOM     48   O  GU6 D   3      28.863  41.321 -12.2690  0.00  0.00     0.000 O
ATOM     49   S  GU6 D   3      29.366  39.884 -12.4020  0.00  0.00     0.000 S
ATOM     50   O  GU6 D   3      30.264  39.558 -11.2880  0.00  0.00     0.000 OA
ATOM     51   O  GU6 D   3      28.130  39.092 -12.3380  0.00  0.00     0.000 OA
ATOM     52   O  GU6 D   3      30.084  39.744 -13.6880  0.00  0.00     0.000 O
ENDBRANCH 39 48
BRANCH 41 53
ATOM     53   C  GU6 D   3      31.826  44.308  -9.5810  0.00  0.00     0.000 C
ATOM     54   O  GU6 D   3      31.073  45.318  -8.9610  0.00  0.00     0.000 O
ATOM     55   S  GU6 D   3      31.600  46.020  -7.7020  0.00  0.00     0.000 S
ATOM     56   O  GU6 D   3      32.805  46.779  -8.1080  0.00  0.00     0.000 O
ATOM     57   O  GU6 D   3      30.558  46.928  -7.2010  0.00  0.00     0.000 OA
ATOM     58   O  GU6 D   3      31.941  44.965  -6.7220  0.00  0.00     0.000 OA
ENDBRANCH 41 53
BRANCH 37 59
ATOM     59  O4  Z9K D   4      29.397  45.677 -12.7730  0.00  0.00     0.000 O
BRANCH 59 63
ATOM     60  C1  Z9K D   4      28.044  49.357 -13.0390  0.00  0.00     0.000 C
ATOM     61  C2  Z9K D   4      29.577  49.595 -13.1070  0.00  0.00     0.000 C
ATOM     62  C3  Z9K D   4      30.111  48.099 -13.1850  0.00  0.00     0.000 C
ATOM     63  C4  Z9K D   4      29.509  47.016 -12.2100  0.00  0.00     0.000 C
ATOM     64  C5  Z9K D   4      28.082  47.281 -11.7080  0.00  0.00     0.000 C
ATOM     65  O5  Z9K D   4      27.472  47.982 -12.8230  0.00  0.00     0.000 O
ATOM     66   O  Z9K D   4      31.537  47.994 -13.0180  0.00  0.00     0.000 O
ATOM     67   C  Z9K D   4      32.282  48.177 -14.2110  0.00  0.00     0.000 C
BRANCH 61 68
ATOM     68   O  Z9K D   4      29.849  50.175 -14.3530  0.00  0.00     0.000 O
ATOM     69   O  Z9K D   4      31.477  51.015 -12.5670  0.00  0.00     0.000 OA
ATOM     70   S  Z9K D   4      30.312  51.344 -13.3320  0.00  0.00     0.000 S
ATOM     71   O  Z9K D   4      29.151  52.019 -12.8390  0.00  0.00     0.000 OA
ATOM     72   O  Z9K D   4      30.672  51.885 -14.6020  0.00  0.00     0.000 OA
ENDBRANCH 61 68
BRANCH 64 73
ATOM     73   C  Z9K D   4      27.427  45.978 -11.2030  0.00  0.00     0.000 C
ATOM     74   O  Z9K D   4      26.762  45.234 -11.9810  0.00  0.00     0.000 O
ATOM     75   O  Z9K D   4      27.532  45.604 -10.0090  0.00  0.00     0.000 OA
ENDBRANCH 64 73
BRANCH 60 76
ATOM     76  O4  Z9L D   5      27.072  50.015 -12.2080  0.00  0.00     0.000 O
BRANCH 76 80
ATOM     77  C1  Z9L D   5      23.524  51.645 -13.0560  0.00  0.00     0.000 C
ATOM     78  C2  Z9L D   5      23.493  51.234 -11.5060  0.00  0.00     0.000 C
ATOM     79  C3  Z9L D   5      25.099  50.984 -11.0390  0.00  0.00     0.000 C
ATOM     80  C4  Z9L D   5      25.682  50.157 -12.3400  0.00  0.00     0.000 C
ATOM     81  C5  Z9L D   5      25.524  50.433 -13.9210  0.00  0.00     0.000 C
ATOM     82  O5  Z9L D   5      24.162  50.838 -14.1260  0.00  0.00     0.000 O
ATOM     83   C  Z9L D   5      24.060  53.524 -14.4970  0.00  0.00     0.000 C
ATOM     84   C  Z9L D   5      24.060  53.524 -14.4970  0.00  0.00     0.000 C
BRANCH 78 85
ATOM     85   O  Z9L D   5      22.970  52.304 -10.7860  0.00  0.00     0.000 O
ATOM     86   O  Z9L D   5      21.240  52.328  -9.9390  0.00  0.00     0.000 OA
ATOM     87   S  Z9L D   5      21.833  51.190 -10.5720  0.00  0.00     0.000 S
ATOM     88   O  Z9L D   5      22.115  50.269  -9.4980  0.00  0.00     0.000 OA
ATOM     89   O  Z9L D   5      21.002  50.910 -11.6920  0.00  0.00     0.000 OA
ENDBRANCH 78 85
BRANCH 79 90
ATOM     90   O  Z9L D   5      25.189  50.042 -10.0170  0.00  0.00     0.000 O
ATOM     91   S  Z9L D   5      25.898  51.277  -9.3050  0.00  0.00     0.000 S
ATOM     92   O  Z9L D   5      25.254  52.556  -9.1580  0.00  0.00     0.000 OA
ATOM     93   O  Z9L D   5      27.324  51.183  -9.4940  0.00  0.00     0.000 O
ATOM     94   O  Z9L D   5      25.574  50.505  -8.1490  0.00  0.00     0.000 OA
ENDBRANCH 79 90
BRANCH 81 95
ATOM     95   C  Z9L D   5      26.190  49.305 -14.9680  0.00  0.00     0.000 C
ATOM     96   S  Z9L D   5      25.866  47.594 -15.9340  0.00  0.00     0.000 S
ATOM     97   O  Z9L D   5      25.472  48.183 -14.5280  0.00  0.00     0.000 O
ATOM     98   O  Z9L D   5      27.273  47.287 -15.8760  0.00  0.00     0.000 OA
ATOM     99   O  Z9L D   5      25.298  48.250 -17.0630  0.00  0.00     0.000 OA
ATOM    100   O  Z9L D   5      25.132  46.464 -15.4220  0.00  0.00     0.000 O
ENDBRANCH 81 95
ENDBRANCH 76 80
ENDBRANCH 60 76
ENDBRANCH 59 63
ENDBRANCH 37 59
ENDBRANCH 36 40
ENDBRANCH 23 36
ENDBRANCH 22 26
ENDBRANCH 1 22
TORSDOF 19
ENDMDL
MODEL 58
REMARK VINA RESULT:      -5.6     20.073     26.943
ROOT
ATOM      1  C1  Z9H D   1      28.109  43.808  -2.7570  0.00  0.00     0.000 C
ATOM      2  C2  Z9H D   1      27.376  43.168  -1.5550  0.00  0.00     0.000 C
ATOM      3  C3  Z9H D   1      25.938  43.684  -1.8710  0.00  0.00     0.000 C
ATOM      4  C4  Z9H D   1      25.822  45.239  -2.1560  0.00  0.00     0.000 C
ATOM      5  C5  Z9H D   1      26.792  46.013  -3.1350  0.00  0.00     0.000 C
ATOM      6  O5  Z9H D   1      28.010  45.238  -3.0050  0.00  0.00     0.000 O
ATOM      7   O  Z9H D   1      25.005  43.292  -0.8630  0.00  0.00     0.000 O
ATOM      8   C  Z9H D   1      24.217  42.130  -1.1720  0.00  0.00     0.000 C
ATOM      9   O  Z9H D   1      24.488  45.448  -2.6290  0.00  0.00     0.000 O
ATOM     10   C  Z9H D   1      23.556  45.930  -1.6560  0.00  0.00     0.000 C
ENDROOT
BRANCH 2 11
ATOM     11   O  Z9H D   1      27.363  41.810  -1.9090  0.00  0.00     0.000 O
ATOM     12   O  Z9H D   1      28.302  40.463  -0.9800  0.00  0.00     0.000 OA
ATOM     13   S  Z9H D   1      28.267  41.837  -0.6030  0.00  0.00     0.000 S
ATOM     14   O  Z9H D   1      27.422  42.108   0.5250  0.00  0.00     0.000 OA
ATOM     15   O  Z9H D   1      29.547  42.460  -0.8520  0.00  0.00     0.000 O
ENDBRANCH 2 11
BRANCH 5 16
ATOM     16   C  Z9H D   1      26.795  47.677  -2.9600  0.00  0.00     0.000 C
ATOM     17   S  Z9H D   1      27.064  49.417  -3.9300  0.00  0.00     0.000 S
ATOM     18   O  Z9H D   1      26.347  48.007  -4.2530  0.00  0.00     0.000 O
ATOM     19   O  Z9H D   1      28.494  49.359  -3.8350  0.00  0.00     0.000 O
ATOM     20   O  Z9H D   1      26.255  50.188  -3.0500  0.00  0.00     0.000 OA
ATOM     21   O  Z9H D   1      26.625  49.679  -5.2690  0.00  0.00     0.000 OA
ENDBRANCH 5 16
BRANCH 1 22
ATOM     22  O4  GU1 D   2      27.715  43.280  -4.0750  0.00  0.00     0.000 O
BRANCH 22 26
ATOM     23  C1  GU1 D   2      29.062  42.186  -7.8110  0.00  0.00     0.000 C
ATOM     24  C2  GU1 D   2      30.021  41.881  -6.6710  0.00  0.00     0.000 C
ATOM     25  C3  GU1 D   2      29.284  41.963  -5.3660  0.00  0.00     0.000 C
ATOM     26  C4  GU1 D   2      28.560  43.294  -5.2320  0.00  0.00     0.000 C
ATOM     27  C5  GU1 D   2      27.703  43.552  -6.4760  0.00  0.00     0.000 C
ATOM     28  O5  GU1 D   2      28.502  43.484  -7.6540  0.00  0.00     0.000 O
ATOM     29   O  GU1 D   2      30.585  40.580  -6.7830  0.00  0.00     0.000 O
ATOM     30   C  GU1 D   2      31.869  40.560  -7.3920  0.00  0.00     0.000 C
ATOM     31   C  GU1 D   2      30.283  40.571  -3.6750  0.00  0.00     0.000 C
ATOM     32   O  GU1 D   2      30.235  41.851  -4.3020  0.00  0.00     0.000 O
BRANCH 27 33
ATOM     33   C  GU1 D   2      27.067  44.920  -6.4260  0.00  0.00     0.000 C
ATOM     34   O  GU1 D   2      25.879  44.997  -6.1870  0.00  0.00     0.000 OA
ATOM     35   O  GU1 D   2      27.735  45.924  -6.6190  0.00  0.00     0.000 O
ENDBRANCH 27 33
BRANCH 23 36
ATOM     36  O4  GU6 D   3      29.571  42.413  -9.1410  0.00  0.00     0.000 O
BRANCH 36 40
ATOM     37  C1  GU6 D   3      31.146  44.336 -12.3830  0.00  0.00     0.000 C
ATOM     38  C2  GU6 D   3      30.875  42.855 -12.6140  0.00  0.00     0.000 C
ATOM     39  C3  GU6 D   3      30.055  42.308 -11.4750  0.00  0.00     0.000 C
ATOM     40  C4  GU6 D   3      29.863  43.166 -10.3000  0.00  0.00     0.000 C
ATOM     41  C5  GU6 D   3      31.178  43.963 -10.0140  0.00  0.00     0.000 C
ATOM     42  O5  GU6 D   3      31.857  44.482 -11.1640  0.00  0.00     0.000 O
BRANCH 38 43
ATOM     43   O  GU6 D   3      30.193  42.658 -13.8380  0.00  0.00     0.000 O
ATOM     44   S  GU6 D   3      31.104  42.399 -15.0310  0.00  0.00     0.000 S
ATOM     45   O  GU6 D   3      31.606  43.692 -15.5270  0.00  0.00     0.000 OA
ATOM     46   O  GU6 D   3      32.239  41.571 -14.5850  0.00  0.00     0.000 O
ATOM     47   O  GU6 D   3      30.343  41.694 -16.0580  0.00  0.00     0.000 OA
ENDBRANCH 38 43
BRANCH 39 48
ATOM     48   O  GU6 D   3      29.309  41.115 -11.6240  0.00  0.00     0.000 O
ATOM     49   S  GU6 D   3      29.762  39.658 -11.5440  0.00  0.00     0.000 S
ATOM     50   O  GU6 D   3      30.434  39.407 -10.2640  0.00  0.00     0.000 OA
ATOM     51   O  GU6 D   3      28.500  38.912 -11.6370  0.00  0.00     0.000 OA
ATOM     52   O  GU6 D   3      30.688  39.382 -12.6650  0.00  0.00     0.000 O
ENDBRANCH 39 48
BRANCH 41 53
ATOM     53   C  GU6 D   3      31.827  44.277  -8.6930  0.00  0.00     0.000 C
ATOM     54   O  GU6 D   3      31.133  45.466  -8.4170  0.00  0.00     0.000 O
ATOM     55   S  GU6 D   3      31.492  46.309  -7.1860  0.00  0.00     0.000 S
ATOM     56   O  GU6 D   3      32.860  46.830  -7.4100  0.00  0.00     0.000 O
ATOM     57   O  GU6 D   3      30.527  47.412  -7.0770  0.00  0.00     0.000 OA
ATOM     58   O  GU6 D   3      31.450  45.410  -6.0110  0.00  0.00     0.000 OA
ENDBRANCH 41 53
BRANCH 37 59
ATOM     59  O4  Z9K D   4      30.147  45.377 -12.4250  0.00  0.00     0.000 O
BRANCH 59 63
ATOM     60  C1  Z9K D   4      26.893  47.461 -13.1450  0.00  0.00     0.000 C
ATOM     61  C2  Z9K D   4      26.436  46.035 -13.5610  0.00  0.00     0.000 C
ATOM     62  C3  Z9K D   4      27.687  45.170 -13.0970  0.00  0.00     0.000 C
ATOM     63  C4  Z9K D   4      29.140  45.679 -13.4340  0.00  0.00     0.000 C
ATOM     64  C5  Z9K D   4      29.299  47.196 -13.6150  0.00  0.00     0.000 C
ATOM     65  O5  Z9K D   4      28.305  47.734 -12.7040  0.00  0.00     0.000 O
ATOM     66   O  Z9K D   4      27.649  43.814 -13.5750  0.00  0.00     0.000 O
ATOM     67   C  Z9K D   4      26.905  42.924 -12.7590  0.00  0.00     0.000 C
BRANCH 61 68
ATOM     68   O  Z9K D   4      25.376  45.680 -12.7160  0.00  0.00     0.000 O
ATOM     69   O  Z9K D   4      25.068  44.688 -15.0550  0.00  0.00     0.000 OA
ATOM     70   S  Z9K D   4      24.650  45.727 -14.1630  0.00  0.00     0.000 S
ATOM     71   O  Z9K D   4      24.413  47.092 -14.5210  0.00  0.00     0.000 OA
ATOM     72   O  Z9K D   4      23.601  45.272 -13.3070  0.00  0.00     0.000 OA
ENDBRANCH 61 68
BRANCH 64 73
ATOM     73   C  Z9K D   4      30.773  47.618 -13.4380  0.00  0.00     0.000 C
ATOM     74   O  Z9K D   4      31.153  48.260 -12.4160  0.00  0.00     0.000 O
ATOM     75   O  Z9K D   4      31.648  47.338 -14.2930  0.00  0.00     0.000 OA
ENDBRANCH 64 73
BRANCH 60 76
ATOM     76  O4  Z9L D   5      26.762  48.691 -13.8770  0.00  0.00     0.000 O
BRANCH 76 80
ATOM     77  C1  Z9L D   5      25.589  52.481 -13.3930  0.00  0.00     0.000 C
ATOM     78  C2  Z9L D   5      27.060  52.522 -14.0310  0.00  0.00     0.000 C
ATOM     79  C3  Z9L D   5      27.363  50.979 -14.6530  0.00  0.00     0.000 C
ATOM     80  C4  Z9L D   5      26.760  50.029 -13.4500  0.00  0.00     0.000 C
ATOM     81  C5  Z9L D   5      25.371  50.116 -12.6340  0.00  0.00     0.000 C
ATOM     82  O5  Z9L D   5      25.148  51.507 -12.3620  0.00  0.00     0.000 O
ATOM     83   C  Z9L D   5      23.251  52.469 -14.0470  0.00  0.00     0.000 C
ATOM     84   C  Z9L D   5      23.251  52.469 -14.0470  0.00  0.00     0.000 C
BRANCH 78 85
ATOM     85   O  Z9L D   5      27.052  53.442 -15.0760  0.00  0.00     0.000 O
ATOM     86   O  Z9L D   5      27.962  55.140 -15.0630  0.00  0.00     0.000 OA
ATOM     87   S  Z9L D   5      28.069  54.139 -14.0460  0.00  0.00     0.000 S
ATOM     88   O  Z9L D   5      29.422  53.650 -14.1440  0.00  0.00     0.000 OA
ATOM     89   O  Z9L D   5      27.493  54.723 -12.8840  0.00  0.00     0.000 OA
ENDBRANCH 78 85
BRANCH 79 90
ATOM     90   O  Z9L D   5      28.722  50.678 -14.6240  0.00  0.00     0.000 O
ATOM     91   S  Z9L D   5      28.427  50.431 -16.1690  0.00  0.00     0.000 S
ATOM     92   O  Z9L D   5      27.851  51.443 -17.0150  0.00  0.00     0.000 OA
ATOM     93   O  Z9L D   5      28.140  49.034 -16.3830  0.00  0.00     0.000 O
ATOM     94   O  Z9L D   5      29.844  50.584 -16.2310  0.00  0.00     0.000 OA
ENDBRANCH 79 90
BRANCH 81 95
ATOM     95   C  Z9L D   5      25.138  49.011 -11.3940  0.00  0.00     0.000 C
ATOM     96   S  Z9L D   5      25.281  48.718  -9.4290  0.00  0.00     0.000 S
ATOM     97   O  Z9L D   5      26.116  49.497 -10.5140  0.00  0.00     0.000 O
ATOM     98   O  Z9L D   5      25.522  47.315  -9.6480  0.00  0.00     0.000 OA
ATOM     99   O  Z9L D   5      23.969  49.215  -9.1830  0.00  0.00     0.000 OA
ATOM    100   O  Z9L D   5      26.324  49.232  -8.5750  0.00  0.00     0.000 O
ENDBRANCH 81 95
ENDBRANCH 76 80
ENDBRANCH 60 76
ENDBRANCH 59 63
ENDBRANCH 37 59
ENDBRANCH 36 40
ENDBRANCH 23 36
ENDBRANCH 22 26
ENDBRANCH 1 22
TORSDOF 19
ENDMDL
MODEL 59
REMARK VINA RESULT:      -5.6      7.478     15.121
ROOT
ATOM      1  C1  Z9H D   1      31.556  28.070 -20.2180  0.00  0.00     0.000 C
ATOM      2  C2  Z9H D   1      31.950  27.790 -21.6870  0.00  0.00     0.000 C
ATOM      3  C3  Z9H D   1      31.873  29.254 -22.2200  0.00  0.00     0.000 C
ATOM      4  C4  Z9H D   1      30.536  30.032 -21.8750  0.00  0.00     0.000 C
ATOM      5  C5  Z9H D   1      29.900  30.058 -20.4290  0.00  0.00     0.000 C
ATOM      6  O5  Z9H D   1      30.321  28.773 -19.9070  0.00  0.00     0.000 O
ATOM      7   O  Z9H D   1      32.137  29.318 -23.6230  0.00  0.00     0.000 O
ATOM      8   C  Z9H D   1      33.479  29.689 -23.9810  0.00  0.00     0.000 C
ATOM      9   O  Z9H D   1      30.768  31.392 -22.2590  0.00  0.00     0.000 O
ATOM     10   C  Z9H D   1      30.230  31.775 -23.5280  0.00  0.00     0.000 C
ENDROOT
BRANCH 2 11
ATOM     11   O  Z9H D   1      33.322  27.514 -21.5750  0.00  0.00     0.000 O
ATOM     12   O  Z9H D   1      34.095  25.828 -21.9150  0.00  0.00     0.000 OA
ATOM     13   S  Z9H D   1      32.713  26.134 -22.0720  0.00  0.00     0.000 S
ATOM     14   O  Z9H D   1      32.304  26.288 -23.4390  0.00  0.00     0.000 OA
ATOM     15   O  Z9H D   1      31.934  25.491 -21.0390  0.00  0.00     0.000 O
ENDBRANCH 2 11
BRANCH 5 16
ATOM     16   C  Z9H D   1      28.299  30.541 -20.3670  0.00  0.00     0.000 C
ATOM     17   S  Z9H D   1      26.714  31.076 -21.4810  0.00  0.00     0.000 S
ATOM     18   O  Z9H D   1      27.876  29.960 -21.5760  0.00  0.00     0.000 O
ATOM     19   O  Z9H D   1      27.164  32.429 -21.6420  0.00  0.00     0.000 O
ATOM     20   O  Z9H D   1      25.739  30.688 -20.5230  0.00  0.00     0.000 OA
ATOM     21   O  Z9H D   1      26.360  30.476 -22.7340  0.00  0.00     0.000 OA
ENDBRANCH 5 16
BRANCH 1 22
ATOM     22  O4  GU1 D   2      32.524  28.883 -19.4610  0.00  0.00     0.000 O
BRANCH 22 26
ATOM     23  C1  GU1 D   2      34.231  29.447 -15.7540  0.00  0.00     0.000 C
ATOM     24  C2  GU1 D   2      33.800  28.018 -16.0490  0.00  0.00     0.000 C
ATOM     25  C3  GU1 D   2      33.561  27.865 -17.5240  0.00  0.00     0.000 C
ATOM     26  C4  GU1 D   2      32.595  28.925 -18.0310  0.00  0.00     0.000 C
ATOM     27  C5  GU1 D   2      33.064  30.316 -17.5920  0.00  0.00     0.000 C
ATOM     28  O5  GU1 D   2      33.229  30.363 -16.1780  0.00  0.00     0.000 O
ATOM     29   O  GU1 D   2      34.789  27.073 -15.6590  0.00  0.00     0.000 O
ATOM     30   C  GU1 D   2      34.560  26.497 -14.3810  0.00  0.00     0.000 C
ATOM     31   C  GU1 D   2      33.896  25.600 -18.2640  0.00  0.00     0.000 C
ATOM     32   O  GU1 D   2      32.988  26.575 -17.7570  0.00  0.00     0.000 O
BRANCH 27 33
ATOM     33   C  GU1 D   2      32.062  31.378 -17.9780  0.00  0.00     0.000 C
ATOM     34   O  GU1 D   2      32.335  32.125 -18.8950  0.00  0.00     0.000 OA
ATOM     35   O  GU1 D   2      31.001  31.476 -17.3800  0.00  0.00     0.000 O
ENDBRANCH 27 33
BRANCH 23 36
ATOM     36  O4  GU6 D   3      34.285  29.917 -14.3930  0.00  0.00     0.000 O
BRANCH 36 40
ATOM     37  C1  GU6 D   3      33.422  31.881 -10.9150  0.00  0.00     0.000 C
ATOM     38  C2  GU6 D   3      34.786  31.201 -10.9200  0.00  0.00     0.000 C
ATOM     39  C3  GU6 D   3      35.119  30.747 -12.3170  0.00  0.00     0.000 C
ATOM     40  C4  GU6 D   3      34.057  30.817 -13.3280  0.00  0.00     0.000 C
ATOM     41  C5  GU6 D   3      32.689  30.427 -12.6770  0.00  0.00     0.000 C
ATOM     42  O5  GU6 D   3      32.451  30.949 -11.3650  0.00  0.00     0.000 O
BRANCH 38 43
ATOM     43   O  GU6 D   3      35.784  32.085 -10.4480  0.00  0.00     0.000 O
ATOM     44   S  GU6 D   3      36.575  31.563  -9.2560  0.00  0.00     0.000 S
ATOM     45   O  GU6 D   3      35.792  31.806  -8.0320  0.00  0.00     0.000 OA
ATOM     46   O  GU6 D   3      36.780  30.113  -9.4260  0.00  0.00     0.000 O
ATOM     47   O  GU6 D   3      37.862  32.249  -9.2080  0.00  0.00     0.000 OA
ENDBRANCH 38 43
BRANCH 39 48
ATOM     48   O  GU6 D   3      36.457  30.487 -12.6970  0.00  0.00     0.000 O
ATOM     49   S  GU6 D   3      37.451  31.367 -13.4520  0.00  0.00     0.000 S
ATOM     50   O  GU6 D   3      37.602  32.658 -12.7710  0.00  0.00     0.000 OA
ATOM     51   O  GU6 D   3      38.695  30.588 -13.3960  0.00  0.00     0.000 OA
ATOM     52   O  GU6 D   3      36.955  31.577 -14.8310  0.00  0.00     0.000 O
ENDBRANCH 39 48
BRANCH 41 53
ATOM     53   C  GU6 D   3      31.576  29.588 -13.2440  0.00  0.00     0.000 C
ATOM     54   O  GU6 D   3      31.594  28.569 -12.2780  0.00  0.00     0.000 O
ATOM     55   S  GU6 D   3      30.694  27.336 -12.4300  0.00  0.00     0.000 S
ATOM     56   O  GU6 D   3      31.176  26.600 -13.6220  0.00  0.00     0.000 O
ATOM     57   O  GU6 D   3      30.823  26.509 -11.2210  0.00  0.00     0.000 OA
ATOM     58   O  GU6 D   3      29.311  27.824 -12.6290  0.00  0.00     0.000 OA
ENDBRANCH 41 53
BRANCH 37 59
ATOM     59  O4  Z9K D   4      33.125  33.147 -11.5420  0.00  0.00     0.000 O
BRANCH 59 63
ATOM     60  C1  Z9K D   4      32.798  37.055 -11.7990  0.00  0.00     0.000 C
ATOM     61  C2  Z9K D   4      32.953  36.866 -10.2650  0.00  0.00     0.000 C
ATOM     62  C3  Z9K D   4      33.269  35.310 -10.1830  0.00  0.00     0.000 C
ATOM     63  C4  Z9K D   4      32.402  34.305 -11.0330  0.00  0.00     0.000 C
ATOM     64  C5  Z9K D   4      31.759  34.877 -12.3050  0.00  0.00     0.000 C
ATOM     65  O5  Z9K D   4      32.722  35.876 -12.7310  0.00  0.00     0.000 O
ATOM     66   O  Z9K D   4      33.228  34.791  -8.8420  0.00  0.00     0.000 O
ATOM     67   C  Z9K D   4      34.440  34.935  -8.1200  0.00  0.00     0.000 C
BRANCH 61 68
ATOM     68   O  Z9K D   4      34.130  37.527  -9.8860  0.00  0.00     0.000 O
ATOM     69   O  Z9K D   4      32.359  37.659  -8.0430  0.00  0.00     0.000 OA
ATOM     70   S  Z9K D   4      32.998  38.381  -9.1020  0.00  0.00     0.000 S
ATOM     71   O  Z9K D   4      32.349  39.256 -10.0290  0.00  0.00     0.000 OA
ATOM     72   O  Z9K D   4      34.209  38.985  -8.6480  0.00  0.00     0.000 OA
ENDBRANCH 61 68
BRANCH 64 73
ATOM     73   C  Z9K D   4      31.381  33.746 -13.2850  0.00  0.00     0.000 C
ATOM     74   O  Z9K D   4      32.000  33.592 -14.3780  0.00  0.00     0.000 O
ATOM     75   O  Z9K D   4      30.455  32.936 -13.0350  0.00  0.00     0.000 OA
ENDBRANCH 64 73
BRANCH 60 76
ATOM     76  O4  Z9L D   5      31.815  37.826 -12.5110  0.00  0.00     0.000 O
BRANCH 76 80
ATOM     77  C1  Z9L D   5      31.364  40.179 -15.7100  0.00  0.00     0.000 C
ATOM     78  C2  Z9L D   5      30.304  38.983 -15.8530  0.00  0.00     0.000 C
ATOM     79  C3  Z9L D   5      30.169  38.269 -14.3250  0.00  0.00     0.000 C
ATOM     80  C4  Z9L D   5      31.747  38.231 -13.8540  0.00  0.00     0.000 C
ATOM     81  C5  Z9L D   5      32.894  39.363 -13.9180  0.00  0.00     0.000 C
ATOM     82  O5  Z9L D   5      32.744  40.018 -15.1860  0.00  0.00     0.000 O
ATOM     83   C  Z9L D   5      31.555  42.431 -14.8250  0.00  0.00     0.000 C
ATOM     84   C  Z9L D   5      31.555  42.431 -14.8250  0.00  0.00     0.000 C
BRANCH 78 85
ATOM     85   O  Z9L D   5      29.076  39.535 -16.2080  0.00  0.00     0.000 O
ATOM     86   O  Z9L D   5      28.205  39.291 -17.9090  0.00  0.00     0.000 OA
ATOM     87   S  Z9L D   5      29.403  38.627 -17.4940  0.00  0.00     0.000 S
ATOM     88   O  Z9L D   5      29.028  37.243 -17.3380  0.00  0.00     0.000 OA
ATOM     89   O  Z9L D   5      30.418  39.107 -18.3660  0.00  0.00     0.000 OA
ENDBRANCH 78 85
BRANCH 79 90
ATOM     90   O  Z9L D   5      29.850  36.918 -14.4240  0.00  0.00     0.000 O
ATOM     91   S  Z9L D   5      28.635  37.413 -13.5220  0.00  0.00     0.000 S
ATOM     92   O  Z9L D   5      27.753  38.474 -13.9320  0.00  0.00     0.000 OA
ATOM     93   O  Z9L D   5      28.962  37.217 -12.1310  0.00  0.00     0.000 O
ATOM     94   O  Z9L D   5      28.077  36.190 -14.0000  0.00  0.00     0.000 OA
ENDBRANCH 79 90
BRANCH 81 95
ATOM     95   C  Z9L D   5      34.436  38.925 -13.4230  0.00  0.00     0.000 C
ATOM     96   S  Z9L D   5      36.258  38.411 -14.0410  0.00  0.00     0.000 S
ATOM     97   O  Z9L D   5      34.787  38.151 -14.5380  0.00  0.00     0.000 O
ATOM     98   O  Z9L D   5      36.442  37.612 -12.8560  0.00  0.00     0.000 OA
ATOM     99   O  Z9L D   5      36.702  39.763 -14.0990  0.00  0.00     0.000 OA
ATOM    100   O  Z9L D   5      36.558  37.596 -15.1920  0.00  0.00     0.000 O
ENDBRANCH 81 95
ENDBRANCH 76 80
ENDBRANCH 60 76
ENDBRANCH 59 63
ENDBRANCH 37 59
ENDBRANCH 36 40
ENDBRANCH 23 36
ENDBRANCH 22 26
ENDBRANCH 1 22
TORSDOF 19
ENDMDL
MODEL 60
REMARK VINA RESULT:      -5.6     30.504     35.921
ROOT
ATOM      1  C1  Z9H D   1       6.381  44.536 -23.9340  0.00  0.00     0.000 C
ATOM      2  C2  Z9H D   1       5.626  44.152 -22.6390  0.00  0.00     0.000 C
ATOM      3  C3  Z9H D   1       4.437  45.153 -22.7690  0.00  0.00     0.000 C
ATOM      4  C4  Z9H D   1       4.844  46.658 -23.0520  0.00  0.00     0.000 C
ATOM      5  C5  Z9H D   1       5.893  47.076 -24.1580  0.00  0.00     0.000 C
ATOM      6  O5  Z9H D   1       6.764  45.918 -24.1810  0.00  0.00     0.000 O
ATOM      7   O  Z9H D   1       3.561  45.078 -21.6430  0.00  0.00     0.000 O
ATOM      8   C  Z9H D   1       2.380  44.280 -21.8330  0.00  0.00     0.000 C
ATOM      9   O  Z9H D   1       3.622  47.342 -23.3470  0.00  0.00     0.000 O
ATOM     10   C  Z9H D   1       3.052  48.084 -22.2650  0.00  0.00     0.000 C
ENDROOT
BRANCH 2 11
ATOM     11   O  Z9H D   1       5.089  42.900 -22.9750  0.00  0.00     0.000 O
ATOM     12   O  Z9H D   1       5.529  41.288 -22.0980  0.00  0.00     0.000 OA
ATOM     13   S  Z9H D   1       6.030  42.572 -21.7370  0.00  0.00     0.000 S
ATOM     14   O  Z9H D   1       5.427  43.118 -20.5550  0.00  0.00     0.000 OA
ATOM     15   O  Z9H D   1       7.428  42.683 -22.0850  0.00  0.00     0.000 O
ENDBRANCH 2 11
BRANCH 5 16
ATOM     16   C  Z9H D   1       6.507  48.625 -24.0020  0.00  0.00     0.000 C
ATOM     17   S  Z9H D   1       7.463  50.104 -24.9710  0.00  0.00     0.000 S
ATOM     18   O  Z9H D   1       6.292  49.051 -25.3260  0.00  0.00     0.000 O
ATOM     19   O  Z9H D   1       8.760  49.521 -24.7780  0.00  0.00     0.000 O
ATOM     20   O  Z9H D   1       6.951  51.151 -24.1570  0.00  0.00     0.000 OA
ATOM     21   O  Z9H D   1       7.234  50.462 -26.3400  0.00  0.00     0.000 OA
ENDBRANCH 5 16
BRANCH 1 22
ATOM     22  O4  GU1 D   2       5.661  44.231 -25.1830  0.00  0.00     0.000 O
BRANCH 22 26
ATOM     23  C1  GU1 D   2       6.872  42.186 -28.5480  0.00  0.00     0.000 C
ATOM     24  C2  GU1 D   2       8.002  42.665 -27.6500  0.00  0.00     0.000 C
ATOM     25  C3  GU1 D   2       7.445  43.039 -26.3070  0.00  0.00     0.000 C
ATOM     26  C4  GU1 D   2       6.300  44.030 -26.4500  0.00  0.00     0.000 C
ATOM     27  C5  GU1 D   2       5.270  43.501 -27.4530  0.00  0.00     0.000 C
ATOM     28  O5  GU1 D   2       5.894  43.208 -28.7000  0.00  0.00     0.000 O
ATOM     29   O  GU1 D   2       8.991  41.661 -27.4570  0.00  0.00     0.000 O
ATOM     30   C  GU1 D   2      10.110  41.782 -28.3230  0.00  0.00     0.000 C
ATOM     31   C  GU1 D   2       9.079  42.809 -24.5540  0.00  0.00     0.000 C
ATOM     32   O  GU1 D   2       8.487  43.651 -25.5400  0.00  0.00     0.000 O
BRANCH 27 33
ATOM     33   C  GU1 D   2       4.182  44.516 -27.7060  0.00  0.00     0.000 C
ATOM     34   O  GU1 D   2       4.460  45.515 -28.3380  0.00  0.00     0.000 OA
ATOM     35   O  GU1 D   2       3.050  44.331 -27.2880  0.00  0.00     0.000 O
ENDBRANCH 27 33
BRANCH 23 36
ATOM     36  O4  GU6 D   3       7.102  42.002 -29.9590  0.00  0.00     0.000 O
BRANCH 36 40
ATOM     37  C1  GU6 D   3       7.266  42.462 -34.0160  0.00  0.00     0.000 C
ATOM     38  C2  GU6 D   3       7.185  41.010 -33.5610  0.00  0.00     0.000 C
ATOM     39  C3  GU6 D   3       6.857  40.959 -32.0910  0.00  0.00     0.000 C
ATOM     40  C4  GU6 D   3       6.896  42.219 -31.3400  0.00  0.00     0.000 C
ATOM     41  C5  GU6 D   3       8.085  43.096 -31.8520  0.00  0.00     0.000 C
ATOM     42  O5  GU6 D   3       8.283  43.114 -33.2710  0.00  0.00     0.000 O
BRANCH 38 43
ATOM     43   O  GU6 D   3       6.203  40.311 -34.3000  0.00  0.00     0.000 O
ATOM     44   S  GU6 D   3       6.758  39.443 -35.4220  0.00  0.00     0.000 S
ATOM     45   O  GU6 D   3       7.018  40.300 -36.5920  0.00  0.00     0.000 OA
ATOM     46   O  GU6 D   3       8.024  38.839 -34.9670  0.00  0.00     0.000 O
ATOM     47   O  GU6 D   3       5.788  38.398 -35.7330  0.00  0.00     0.000 OA
ENDBRANCH 38 43
BRANCH 39 48
ATOM     48   O  GU6 D   3       6.308  39.792 -31.5100  0.00  0.00     0.000 O
ATOM     49   S  GU6 D   3       7.006  38.557 -30.9420  0.00  0.00     0.000 S
ATOM     50   O  GU6 D   3       7.973  38.952 -29.9120  0.00  0.00     0.000 OA
ATOM     51   O  GU6 D   3       5.898  37.785 -30.3640  0.00  0.00     0.000 OA
ATOM     52   O  GU6 D   3       7.699  37.850 -32.0420  0.00  0.00     0.000 O
ENDBRANCH 39 48
BRANCH 41 53
ATOM     53   C  GU6 D   3       9.048  43.942 -31.0620  0.00  0.00     0.000 C
ATOM     54   O  GU6 D   3      10.091  43.971 -32.0020  0.00  0.00     0.000 O
ATOM     55   S  GU6 D   3      11.430  44.636 -31.6560  0.00  0.00     0.000 S
ATOM     56   O  GU6 D   3      12.045  43.825 -30.5810  0.00  0.00     0.000 O
ATOM     57   O  GU6 D   3      12.277  44.635 -32.8580  0.00  0.00     0.000 OA
ATOM     58   O  GU6 D   3      11.131  46.007 -31.1850  0.00  0.00     0.000 OA
ENDBRANCH 41 53
BRANCH 37 59
ATOM     59  O4  Z9K D   4       6.146  43.368 -34.0970  0.00  0.00     0.000 O
BRANCH 59 63
ATOM     60  C1  Z9K D   4       5.302  43.379 -37.9360  0.00  0.00     0.000 C
ATOM     61  C2  Z9K D   4       6.276  44.586 -37.8380  0.00  0.00     0.000 C
ATOM     62  C3  Z9K D   4       6.756  44.464 -36.3270  0.00  0.00     0.000 C
ATOM     63  C4  Z9K D   4       5.685  44.202 -35.2000  0.00  0.00     0.000 C
ATOM     64  C5  Z9K D   4       4.402  43.483 -35.6430  0.00  0.00     0.000 C
ATOM     65  O5  Z9K D   4       4.869  42.619 -36.7120  0.00  0.00     0.000 O
ATOM     66   O  Z9K D   4       7.498  45.610 -35.8720  0.00  0.00     0.000 O
ATOM     67   C  Z9K D   4       8.883  45.567 -36.1720  0.00  0.00     0.000 C
BRANCH 61 68
ATOM     68   O  Z9K D   4       7.390  44.281 -38.6310  0.00  0.00     0.000 O
ATOM     69   O  Z9K D   4       6.902  46.793 -38.6470  0.00  0.00     0.000 OA
ATOM     70   S  Z9K D   4       6.783  45.575 -39.3910  0.00  0.00     0.000 S
ATOM     71   O  Z9K D   4       5.644  45.173 -40.1590  0.00  0.00     0.000 OA
ATOM     72   O  Z9K D   4       7.973  45.313 -40.1340  0.00  0.00     0.000 OA
ENDBRANCH 61 68
BRANCH 64 73
ATOM     73   C  Z9K D   4       3.685  42.846 -34.4340  0.00  0.00     0.000 C
ATOM     74   O  Z9K D   4       3.299  43.549 -33.4550  0.00  0.00     0.000 O
ATOM     75   O  Z9K D   4       3.452  41.613 -34.3770  0.00  0.00     0.000 OA
ENDBRANCH 64 73
BRANCH 60 76
ATOM     76  O4  Z9L D   5       4.013  43.318 -38.5690  0.00  0.00     0.000 O
BRANCH 76 80
ATOM     77  C1  Z9L D   5       1.616  41.119 -40.8900  0.00  0.00     0.000 C
ATOM     78  C2  Z9L D   5       0.934  41.185 -39.4400  0.00  0.00     0.000 C
ATOM     79  C3  Z9L D   5       1.677  42.459 -38.6120  0.00  0.00     0.000 C
ATOM     80  C4  Z9L D   5       3.254  42.229 -39.0280  0.00  0.00     0.000 C
ATOM     81  C5  Z9L D   5       3.934  41.931 -40.4600  0.00  0.00     0.000 C
ATOM     82  O5  Z9L D   5       3.077  40.992 -41.1260  0.00  0.00     0.000 O
ATOM     83   C  Z9L D   5       1.623  42.279 -43.0230  0.00  0.00     0.000 C
ATOM     84   C  Z9L D   5       1.623  42.279 -43.0230  0.00  0.00     0.000 C
BRANCH 78 85
ATOM     85   O  Z9L D   5      -0.416  41.477 -39.6100  0.00  0.00     0.000 O
ATOM     86   O  Z9L D   5      -1.867  40.271 -39.2210  0.00  0.00     0.000 OA
ATOM     87   S  Z9L D   5      -0.488  40.022 -38.9300  0.00  0.00     0.000 S
ATOM     88   O  Z9L D   5      -0.398  40.048 -37.4910  0.00  0.00     0.000 OA
ATOM     89   O  Z9L D   5      -0.124  38.920 -39.7530  0.00  0.00     0.000 OA
ENDBRANCH 78 85
BRANCH 79 90
ATOM     90   O  Z9L D   5       1.691  42.231 -37.2380  0.00  0.00     0.000 O
ATOM     91   S  Z9L D   5       0.878  43.600 -37.2740  0.00  0.00     0.000 S
ATOM     92   O  Z9L D   5      -0.327  43.762 -38.0450  0.00  0.00     0.000 OA
ATOM     93   O  Z9L D   5       1.789  44.701 -37.0830  0.00  0.00     0.000 O
ATOM     94   O  Z9L D   5       0.493  43.143 -35.9780  0.00  0.00     0.000 OA
ENDBRANCH 79 90
BRANCH 81 95
ATOM     95   C  Z9L D   5       5.589  41.659 -40.4840  0.00  0.00     0.000 C
ATOM     96   S  Z9L D   5       7.011  40.271 -40.3450  0.00  0.00     0.000 S
ATOM     97   O  Z9L D   5       5.611  40.518 -39.6680  0.00  0.00     0.000 O
ATOM     98   O  Z9L D   5       7.917  41.244 -39.7920  0.00  0.00     0.000 OA
ATOM     99   O  Z9L D   5       6.983  39.995 -41.7420  0.00  0.00     0.000 OA
ATOM    100   O  Z9L D   5       6.985  39.123 -39.4720  0.00  0.00     0.000 O
ENDBRANCH 81 95
ENDBRANCH 76 80
ENDBRANCH 60 76
ENDBRANCH 59 63
ENDBRANCH 37 59
ENDBRANCH 36 40
ENDBRANCH 23 36
ENDBRANCH 22 26
ENDBRANCH 1 22
TORSDOF 19
ENDMDL
MODEL 61
REMARK VINA RESULT:      -5.6     31.945     41.062
ROOT
ATOM      1  C1  Z9H D   1      -2.857  22.082 -22.7920  0.00  0.00     0.000 C
ATOM      2  C2  Z9H D   1      -1.788  23.096 -23.2650  0.00  0.00     0.000 C
ATOM      3  C3  Z9H D   1      -0.730  22.077 -23.7870  0.00  0.00     0.000 C
ATOM      4  C4  Z9H D   1      -0.351  20.915 -22.7780  0.00  0.00     0.000 C
ATOM      5  C5  Z9H D   1      -1.429  20.065 -21.9950  0.00  0.00     0.000 C
ATOM      6  O5  Z9H D   1      -2.506  21.026 -21.8550  0.00  0.00     0.000 O
ATOM      7   O  Z9H D   1       0.450  22.735 -24.2520  0.00  0.00     0.000 O
ATOM      8   C  Z9H D   1       0.528  22.926 -25.6750  0.00  0.00     0.000 C
ATOM      9   O  Z9H D   1       0.449  19.994 -23.5280  0.00  0.00     0.000 O
ATOM     10   C  Z9H D   1       1.863  20.114 -23.3450  0.00  0.00     0.000 C
ENDROOT
BRANCH 2 11
ATOM     11   O  Z9H D   1      -2.383  23.629 -24.4200  0.00  0.00     0.000 O
ATOM     12   O  Z9H D   1      -2.814  25.451 -24.6450  0.00  0.00     0.000 OA
ATOM     13   S  Z9H D   1      -2.168  24.906 -23.4990  0.00  0.00     0.000 S
ATOM     14   O  Z9H D   1      -0.762  25.186 -23.4380  0.00  0.00     0.000 OA
ATOM     15   O  Z9H D   1      -3.066  24.904 -22.3670  0.00  0.00     0.000 O
ENDBRANCH 2 11
BRANCH 5 16
ATOM     16   C  Z9H D   1      -0.843  19.217 -20.6770  0.00  0.00     0.000 C
ATOM     17   S  Z9H D   1      -0.892  17.448 -19.7230  0.00  0.00     0.000 S
ATOM     18   O  Z9H D   1      -0.832  17.937 -21.2610  0.00  0.00     0.000 O
ATOM     19   O  Z9H D   1      -2.122  17.740 -19.0450  0.00  0.00     0.000 O
ATOM     20   O  Z9H D   1       0.385  17.587 -19.1150  0.00  0.00     0.000 OA
ATOM     21   O  Z9H D   1      -0.929  16.172 -20.3760  0.00  0.00     0.000 OA
ENDBRANCH 5 16
BRANCH 1 22
ATOM     22  O4  GU1 D   2      -3.478  21.289 -23.8680  0.00  0.00     0.000 O
BRANCH 22 26
ATOM     23  C1  GU1 D   2      -7.125  20.008 -25.2920  0.00  0.00     0.000 C
ATOM     24  C2  GU1 D   2      -7.186  21.223 -24.3780  0.00  0.00     0.000 C
ATOM     25  C3  GU1 D   2      -5.812  21.813 -24.2430  0.00  0.00     0.000 C
ATOM     26  C4  GU1 D   2      -4.806  20.757 -23.8100  0.00  0.00     0.000 C
ATOM     27  C5  GU1 D   2      -4.898  19.536 -24.7300  0.00  0.00     0.000 C
ATOM     28  O5  GU1 D   2      -6.232  19.035 -24.7620  0.00  0.00     0.000 O
ATOM     29   O  GU1 D   2      -8.054  22.228 -24.8860  0.00  0.00     0.000 O
ATOM     30   C  GU1 D   2      -9.361  22.194 -24.3320  0.00  0.00     0.000 C
ATOM     31   C  GU1 D   2      -5.883  24.169 -23.7560  0.00  0.00     0.000 C
ATOM     32   O  GU1 D   2      -5.857  22.838 -23.2450  0.00  0.00     0.000 O
BRANCH 27 33
ATOM     33   C  GU1 D   2      -3.997  18.422 -24.2530  0.00  0.00     0.000 C
ATOM     34   O  GU1 D   2      -3.910  18.221 -23.0590  0.00  0.00     0.000 OA
ATOM     35   O  GU1 D   2      -3.375  17.741 -25.0530  0.00  0.00     0.000 O
ENDBRANCH 27 33
BRANCH 23 36
ATOM     36  O4  GU6 D   3      -8.257  19.121 -25.3880  0.00  0.00     0.000 O
BRANCH 36 40
ATOM     37  C1  GU6 D   3     -11.303  16.682 -26.5970  0.00  0.00     0.000 C
ATOM     38  C2  GU6 D   3     -11.620  18.168 -26.7060  0.00  0.00     0.000 C
ATOM     39  C3  GU6 D   3     -10.361  18.969 -26.5020  0.00  0.00     0.000 C
ATOM     40  C4  GU6 D   3      -9.168  18.256 -26.0350  0.00  0.00     0.000 C
ATOM     41  C5  GU6 D   3      -9.585  17.165 -24.9940  0.00  0.00     0.000 C
ATOM     42  O5  GU6 D   3     -10.772  16.426 -25.3060  0.00  0.00     0.000 O
BRANCH 38 43
ATOM     43   O  GU6 D   3     -12.183  18.465 -27.9700  0.00  0.00     0.000 O
ATOM     44   S  GU6 D   3     -13.601  19.018 -27.9130  0.00  0.00     0.000 S
ATOM     45   O  GU6 D   3     -14.538  17.890 -27.7700  0.00  0.00     0.000 OA
ATOM     46   O  GU6 D   3     -13.715  19.902 -26.7390  0.00  0.00     0.000 O
ATOM     47   O  GU6 D   3     -13.861  19.773 -29.1350  0.00  0.00     0.000 OA
ENDBRANCH 38 43
BRANCH 39 48
ATOM     48   O  GU6 D   3     -10.267  20.303 -26.9640  0.00  0.00     0.000 O
ATOM     49   S  GU6 D   3      -9.705  20.850 -28.2760  0.00  0.00     0.000 S
ATOM     50   O  GU6 D   3     -10.369  20.208 -29.4160  0.00  0.00     0.000 OA
ATOM     51   O  GU6 D   3     -10.032  22.281 -28.2070  0.00  0.00     0.000 OA
ATOM     52   O  GU6 D   3      -8.250  20.585 -28.3220  0.00  0.00     0.000 O
ENDBRANCH 39 48
BRANCH 41 53
ATOM     53   C  GU6 D   3      -8.904  16.768 -23.7120  0.00  0.00     0.000 C
ATOM     54   O  GU6 D   3      -7.752  16.198 -24.2770  0.00  0.00     0.000 O
ATOM     55   S  GU6 D   3      -6.712  15.503 -23.3880  0.00  0.00     0.000 S
ATOM     56   O  GU6 D   3      -7.368  14.302 -22.8210  0.00  0.00     0.000 O
ATOM     57   O  GU6 D   3      -5.563  15.122 -24.2220  0.00  0.00     0.000 OA
ATOM     58   O  GU6 D   3      -6.337  16.459 -22.3220  0.00  0.00     0.000 OA
ENDBRANCH 41 53
BRANCH 37 59
ATOM     59  O4  Z9K D   4     -10.512  15.932 -27.5430  0.00  0.00     0.000 O
BRANCH 59 63
ATOM     60  C1  Z9K D   4     -10.243  12.872 -29.9950  0.00  0.00     0.000 C
ATOM     61  C2  Z9K D   4     -11.215  12.312 -28.9200  0.00  0.00     0.000 C
ATOM     62  C3  Z9K D   4     -11.465  13.609 -28.0350  0.00  0.00     0.000 C
ATOM     63  C4  Z9K D   4     -10.236  14.503 -27.6180  0.00  0.00     0.000 C
ATOM     64  C5  Z9K D   4      -9.018  14.452 -28.5530  0.00  0.00     0.000 C
ATOM     65  O5  Z9K D   4      -9.620  14.234 -29.8550  0.00  0.00     0.000 O
ATOM     66   O  Z9K D   4     -12.155  13.332 -26.8030  0.00  0.00     0.000 O
ATOM     67   C  Z9K D   4     -13.569  13.305 -26.9160  0.00  0.00     0.000 C
BRANCH 61 68
ATOM     68   O  Z9K D   4     -12.428  12.036 -29.5660  0.00  0.00     0.000 O
ATOM     69   O  Z9K D   4     -11.989  10.372 -27.6720  0.00  0.00     0.000 OA
ATOM     70   S  Z9K D   4     -11.959  10.561 -29.0910  0.00  0.00     0.000 S
ATOM     71   O  Z9K D   4     -10.938  10.089 -29.9760  0.00  0.00     0.000 OA
ATOM     72   O  Z9K D   4     -13.240  10.305 -29.6660  0.00  0.00     0.000 OA
ENDBRANCH 61 68
BRANCH 64 73
ATOM     73   C  Z9K D   4      -8.118  15.690 -28.3490  0.00  0.00     0.000 C
ATOM     74   O  Z9K D   4      -8.253  16.723 -29.0660  0.00  0.00     0.000 O
ATOM     75   O  Z9K D   4      -7.226  15.721 -27.4660  0.00  0.00     0.000 OA
ENDBRANCH 64 73
BRANCH 60 76
ATOM     76  O4  Z9L D   5      -9.060  12.260 -30.5360  0.00  0.00     0.000 O
BRANCH 76 80
ATOM     77  C1  Z9L D   5      -6.783  11.911 -33.8020  0.00  0.00     0.000 C
ATOM     78  C2  Z9L D   5      -5.899  12.657 -32.6900  0.00  0.00     0.000 C
ATOM     79  C3  Z9L D   5      -6.666  12.397 -31.2050  0.00  0.00     0.000 C
ATOM     80  C4  Z9L D   5      -8.245  12.617 -31.6230  0.00  0.00     0.000 C
ATOM     81  C5  Z9L D   5      -9.093  12.055 -32.8740  0.00  0.00     0.000 C
ATOM     82  O5  Z9L D   5      -8.233  12.147 -34.0190  0.00  0.00     0.000 O
ATOM     83   C  Z9L D   5      -7.274   9.684 -34.6350  0.00  0.00     0.000 C
ATOM     84   C  Z9L D   5      -7.274   9.684 -34.6350  0.00  0.00     0.000 C
BRANCH 78 85
ATOM     85   O  Z9L D   5      -4.642  12.059 -32.6650  0.00  0.00     0.000 O
ATOM     86   O  Z9L D   5      -3.000  12.914 -33.1950  0.00  0.00     0.000 OA
ATOM     87   S  Z9L D   5      -4.272  13.562 -33.1000  0.00  0.00     0.000 S
ATOM     88   O  Z9L D   5      -4.146  14.473 -31.9900  0.00  0.00     0.000 OA
ATOM     89   O  Z9L D   5      -4.603  13.935 -34.4320  0.00  0.00     0.000 OA
ENDBRANCH 78 85
BRANCH 79 90
ATOM     90   O  Z9L D   5      -6.436  13.451 -30.3250  0.00  0.00     0.000 O
ATOM     91   S  Z9L D   5      -5.877  12.244 -29.4490  0.00  0.00     0.000 S
ATOM     92   O  Z9L D   5      -4.845  11.360 -29.9240  0.00  0.00     0.000 OA
ATOM     93   O  Z9L D   5      -6.920  11.764 -28.5760  0.00  0.00     0.000 O
ATOM     94   O  Z9L D   5      -5.232  13.327 -28.7800  0.00  0.00     0.000 OA
ENDBRANCH 79 90
BRANCH 81 95
ATOM     95   C  Z9L D   5     -10.680  12.574 -33.0220  0.00  0.00     0.000 C
ATOM     96   S  Z9L D   5     -12.434  12.215 -33.8960  0.00  0.00     0.000 S
ATOM     97   O  Z9L D   5     -10.922  12.096 -34.3180  0.00  0.00     0.000 O
ATOM     98   O  Z9L D   5     -12.746  13.621 -33.8640  0.00  0.00     0.000 OA
ATOM     99   O  Z9L D   5     -12.858  11.338 -32.8570  0.00  0.00     0.000 OA
ATOM    100   O  Z9L D   5     -12.621  11.738 -35.2440  0.00  0.00     0.000 O
ENDBRANCH 81 95
ENDBRANCH 76 80
ENDBRANCH 60 76
ENDBRANCH 59 63
ENDBRANCH 37 59
ENDBRANCH 36 40
ENDBRANCH 23 36
ENDBRANCH 22 26
ENDBRANCH 1 22
TORSDOF 19
ENDMDL
MODEL 62
REMARK VINA RESULT:      -5.5     31.568     40.474
ROOT
ATOM      1  C1  Z9H D   1      -3.557  21.675 -22.5330  0.00  0.00     0.000 C
ATOM      2  C2  Z9H D   1      -2.778  22.991 -22.7660  0.00  0.00     0.000 C
ATOM      3  C3  Z9H D   1      -1.692  22.438 -23.7380  0.00  0.00     0.000 C
ATOM      4  C4  Z9H D   1      -0.942  21.131 -23.2460  0.00  0.00     0.000 C
ATOM      5  C5  Z9H D   1      -1.696  19.869 -22.6670  0.00  0.00     0.000 C
ATOM      6  O5  Z9H D   1      -2.865  20.482 -22.0680  0.00  0.00     0.000 O
ATOM      7   O  Z9H D   1      -0.746  23.447 -24.1000  0.00  0.00     0.000 O
ATOM      8   C  Z9H D   1      -0.978  24.081 -25.3690  0.00  0.00     0.000 C
ATOM      9   O  Z9H D   1      -0.166  20.685 -24.3630  0.00  0.00     0.000 O
ATOM     10   C  Z9H D   1       1.218  21.045 -24.3360  0.00  0.00     0.000 C
ENDROOT
BRANCH 2 11
ATOM     11   O  Z9H D   1      -3.664  23.714 -23.5800  0.00  0.00     0.000 O
ATOM     12   O  Z9H D   1      -4.498  25.326 -23.0690  0.00  0.00     0.000 OA
ATOM     13   S  Z9H D   1      -3.562  24.608 -22.2720  0.00  0.00     0.000 S
ATOM     14   O  Z9H D   1      -2.256  25.204 -22.2330  0.00  0.00     0.000 OA
ATOM     15   O  Z9H D   1      -4.226  23.989 -21.1480  0.00  0.00     0.000 O
ENDBRANCH 2 11
BRANCH 5 16
ATOM     16   C  Z9H D   1      -0.735  18.802 -21.8070  0.00  0.00     0.000 C
ATOM     17   S  Z9H D   1       0.435  18.608 -20.1840  0.00  0.00     0.000 S
ATOM     18   O  Z9H D   1      -0.972  19.324 -20.5220  0.00  0.00     0.000 O
ATOM     19   O  Z9H D   1       1.578  19.195 -20.8210  0.00  0.00     0.000 O
ATOM     20   O  Z9H D   1       0.251  17.204 -20.0530  0.00  0.00     0.000 OA
ATOM     21   O  Z9H D   1       0.165  19.205 -18.9090  0.00  0.00     0.000 OA
ENDBRANCH 5 16
BRANCH 1 22
ATOM     22  O4  GU1 D   2      -4.240  21.140 -23.7240  0.00  0.00     0.000 O
BRANCH 22 26
ATOM     23  C1  GU1 D   2      -7.675  19.383 -25.1670  0.00  0.00     0.000 C
ATOM     24  C2  GU1 D   2      -7.901  20.481 -24.1400  0.00  0.00     0.000 C
ATOM     25  C3  GU1 D   2      -6.643  21.285 -23.9850  0.00  0.00     0.000 C
ATOM     26  C4  GU1 D   2      -5.455  20.383 -23.6820  0.00  0.00     0.000 C
ATOM     27  C5  GU1 D   2      -5.378  19.253 -24.7130  0.00  0.00     0.000 C
ATOM     28  O5  GU1 D   2      -6.608  18.534 -24.7570  0.00  0.00     0.000 O
ATOM     29   O  GU1 D   2      -8.948  21.364 -24.5260  0.00  0.00     0.000 O
ATOM     30   C  GU1 D   2     -10.206  21.054 -23.9430  0.00  0.00     0.000 C
ATOM     31   C  GU1 D   2      -7.091  23.540 -23.2730  0.00  0.00     0.000 C
ATOM     32   O  GU1 D   2      -6.818  22.193 -22.8930  0.00  0.00     0.000 O
BRANCH 27 33
ATOM     33   C  GU1 D   2      -4.282  18.273 -24.3690  0.00  0.00     0.000 C
ATOM     34   O  GU1 D   2      -4.328  17.708 -23.2950  0.00  0.00     0.000 OA
ATOM     35   O  GU1 D   2      -3.375  18.054 -25.1570  0.00  0.00     0.000 O
ENDBRANCH 27 33
BRANCH 23 36
ATOM     36  O4  GU6 D   3      -8.643  18.326 -25.3180  0.00  0.00     0.000 O
BRANCH 36 40
ATOM     37  C1  GU6 D   3     -10.966  15.207 -26.5700  0.00  0.00     0.000 C
ATOM     38  C2  GU6 D   3     -11.477  16.573 -27.0090  0.00  0.00     0.000 C
ATOM     39  C3  GU6 D   3     -10.424  17.616 -26.7390  0.00  0.00     0.000 C
ATOM     40  C4  GU6 D   3      -9.258  17.217 -25.9430  0.00  0.00     0.000 C
ATOM     41  C5  GU6 D   3      -9.710  16.240 -24.8070  0.00  0.00     0.000 C
ATOM     42  O5  GU6 D   3     -10.680  15.255 -25.1810  0.00  0.00     0.000 O
BRANCH 38 43
ATOM     43   O  GU6 D   3     -11.805  16.563 -28.3850  0.00  0.00     0.000 O
ATOM     44   S  GU6 D   3     -13.286  16.764 -28.6810  0.00  0.00     0.000 S
ATOM     45   O  GU6 D   3     -13.975  15.472 -28.5150  0.00  0.00     0.000 OA
ATOM     46   O  GU6 D   3     -13.830  17.737 -27.7170  0.00  0.00     0.000 O
ATOM     47   O  GU6 D   3     -13.429  17.272 -30.0410  0.00  0.00     0.000 OA
ENDBRANCH 38 43
BRANCH 39 48
ATOM     48   O  GU6 D   3     -10.441  18.858 -27.4170  0.00  0.00     0.000 O
ATOM     49   S  GU6 D   3      -9.689  19.300 -28.6720  0.00  0.00     0.000 S
ATOM     50   O  GU6 D   3      -9.965  18.376 -29.7780  0.00  0.00     0.000 OA
ATOM     51   O  GU6 D   3     -10.247  20.632 -28.9420  0.00  0.00     0.000 OA
ATOM     52   O  GU6 D   3      -8.239  19.322 -28.3800  0.00  0.00     0.000 O
ENDBRANCH 39 48
BRANCH 41 53
ATOM     53   C  GU6 D   3      -9.256  16.179 -23.3740  0.00  0.00     0.000 C
ATOM     54   O  GU6 D   3      -9.747  14.898 -23.0730  0.00  0.00     0.000 O
ATOM     55   S  GU6 D   3      -9.655  14.345 -21.6450  0.00  0.00     0.000 S
ATOM     56   O  GU6 D   3     -10.535  15.187 -20.8020  0.00  0.00     0.000 O
ATOM     57   O  GU6 D   3     -10.120  12.951 -21.6510  0.00  0.00     0.000 OA
ATOM     58   O  GU6 D   3      -8.242  14.461 -21.2200  0.00  0.00     0.000 OA
ENDBRANCH 41 53
BRANCH 37 59
ATOM     59  O4  Z9K D   4      -9.892  14.481 -27.2040  0.00  0.00     0.000 O
BRANCH 59 63
ATOM     60  C1  Z9K D   4      -7.740  12.159 -29.5340  0.00  0.00     0.000 C
ATOM     61  C2  Z9K D   4      -8.991  12.402 -30.4230  0.00  0.00     0.000 C
ATOM     62  C3  Z9K D   4      -9.770  13.484 -29.5580  0.00  0.00     0.000 C
ATOM     63  C4  Z9K D   4      -9.920  13.263 -28.0040  0.00  0.00     0.000 C
ATOM     64  C5  Z9K D   4      -8.833  12.406 -27.3370  0.00  0.00     0.000 C
ATOM     65  O5  Z9K D   4      -7.656  12.702 -28.1340  0.00  0.00     0.000 O
ATOM     66   O  Z9K D   4     -11.108  13.731 -30.0270  0.00  0.00     0.000 O
ATOM     67   C  Z9K D   4     -11.198  14.695 -31.0630  0.00  0.00     0.000 C
BRANCH 61 68
ATOM     68   O  Z9K D   4      -8.552  13.063 -31.5780  0.00  0.00     0.000 O
ATOM     69   O  Z9K D   4     -10.567  11.566 -32.0770  0.00  0.00     0.000 OA
ATOM     70   S  Z9K D   4      -9.144  11.683 -32.1860  0.00  0.00     0.000 S
ATOM     71   O  Z9K D   4      -8.199  10.632 -31.9630  0.00  0.00     0.000 OA
ATOM     72   O  Z9K D   4      -8.781  12.407 -33.3620  0.00  0.00     0.000 OA
ENDBRANCH 61 68
BRANCH 64 73
ATOM     73   C  Z9K D   4      -8.785  12.666 -25.8170  0.00  0.00     0.000 C
ATOM     74   O  Z9K D   4      -9.677  12.208 -25.0450  0.00  0.00     0.000 O
ATOM     75   O  Z9K D   4      -7.862  13.332 -25.2890  0.00  0.00     0.000 OA
ENDBRANCH 64 73
BRANCH 60 76
ATOM     76  O4  Z9L D   5      -7.101  10.912 -29.2110  0.00  0.00     0.000 O
BRANCH 76 80
ATOM     77  C1  Z9L D   5      -3.600   8.998 -28.9930  0.00  0.00     0.000 C
ATOM     78  C2  Z9L D   5      -4.150   9.142 -27.4940  0.00  0.00     0.000 C
ATOM     79  C3  Z9L D   5      -5.795   9.518 -27.6140  0.00  0.00     0.000 C
ATOM     80  C4  Z9L D   5      -5.778  10.615 -28.8440  0.00  0.00     0.000 C
ATOM     81  C5  Z9L D   5      -5.035  10.584 -30.2750  0.00  0.00     0.000 C
ATOM     82  O5  Z9L D   5      -3.726  10.046 -30.0380  0.00  0.00     0.000 O
ATOM     83   C  Z9L D   5      -3.640   7.466 -30.8760  0.00  0.00     0.000 C
ATOM     84   C  Z9L D   5      -3.640   7.466 -30.8760  0.00  0.00     0.000 C
BRANCH 78 85
ATOM     85   O  Z9L D   5      -4.009   7.910 -26.8620  0.00  0.00     0.000 O
ATOM     86   O  Z9L D   5      -2.782   7.537 -25.4250  0.00  0.00     0.000 OA
ATOM     87   S  Z9L D   5      -3.020   8.829 -25.9920  0.00  0.00     0.000 S
ATOM     88   O  Z9L D   5      -3.684   9.577 -24.9530  0.00  0.00     0.000 OA
ATOM     89   O  Z9L D   5      -1.792   9.199 -26.6080  0.00  0.00     0.000 OA
ENDBRANCH 78 85
BRANCH 79 90
ATOM     90   O  Z9L D   5      -6.221  10.283 -26.5320  0.00  0.00     0.000 O
ATOM     91   S  Z9L D   5      -7.181   9.024 -26.3640  0.00  0.00     0.000 S
ATOM     92   O  Z9L D   5      -6.678   7.681 -26.2440  0.00  0.00     0.000 OA
ATOM     93   O  Z9L D   5      -8.436   9.290 -27.0230  0.00  0.00     0.000 O
ATOM     94   O  Z9L D   5      -7.277   9.560 -25.0440  0.00  0.00     0.000 OA
ENDBRANCH 79 90
BRANCH 81 95
ATOM     95   C  Z9L D   5      -5.177  11.945 -31.2450  0.00  0.00     0.000 C
ATOM     96   S  Z9L D   5      -4.329  13.673 -31.7550  0.00  0.00     0.000 S
ATOM     97   O  Z9L D   5      -4.476  12.842 -30.4250  0.00  0.00     0.000 O
ATOM     98   O  Z9L D   5      -5.626  14.234 -32.0390  0.00  0.00     0.000 OA
ATOM     99   O  Z9L D   5      -3.542  13.072 -32.7770  0.00  0.00     0.000 OA
ATOM    100   O  Z9L D   5      -3.633  14.566 -30.8610  0.00  0.00     0.000 O
ENDBRANCH 81 95
ENDBRANCH 76 80
ENDBRANCH 60 76
ENDBRANCH 59 63
ENDBRANCH 37 59
ENDBRANCH 36 40
ENDBRANCH 23 36
ENDBRANCH 22 26
ENDBRANCH 1 22
TORSDOF 19
ENDMDL
MODEL 63
REMARK VINA RESULT:      -5.5     20.132     27.549
ROOT
ATOM      1  C1  Z9H D   1      29.850  42.843  -4.3930  0.00  0.00     0.000 C
ATOM      2  C2  Z9H D   1      29.544  41.887  -3.2160  0.00  0.00     0.000 C
ATOM      3  C3  Z9H D   1      27.999  42.088  -3.1620  0.00  0.00     0.000 C
ATOM      4  C4  Z9H D   1      27.511  43.595  -3.1260  0.00  0.00     0.000 C
ATOM      5  C5  Z9H D   1      28.063  44.705  -4.1060  0.00  0.00     0.000 C
ATOM      6  O5  Z9H D   1      29.411  44.230  -4.3480  0.00  0.00     0.000 O
ATOM      7   O  Z9H D   1      27.410  41.349  -2.0890  0.00  0.00     0.000 O
ATOM      8   C  Z9H D   1      26.825  40.089  -2.4580  0.00  0.00     0.000 C
ATOM      9   O  Z9H D   1      26.091  43.548  -3.2990  0.00  0.00     0.000 O
ATOM     10   C  Z9H D   1      25.319  43.655  -2.0980  0.00  0.00     0.000 C
ENDROOT
BRANCH 2 11
ATOM     11   O  Z9H D   1      29.729  40.627  -3.8080  0.00  0.00     0.000 O
ATOM     12   O  Z9H D   1      31.124  39.439  -3.3590  0.00  0.00     0.000 OA
ATOM     13   S  Z9H D   1      30.897  40.699  -2.7340  0.00  0.00     0.000 S
ATOM     14   O  Z9H D   1      30.313  40.600  -1.4260  0.00  0.00     0.000 OA
ATOM     15   O  Z9H D   1      31.919  41.644  -3.1180  0.00  0.00     0.000 O
ENDBRANCH 2 11
BRANCH 5 16
ATOM     16   C  Z9H D   1      27.769  46.282  -3.6290  0.00  0.00     0.000 C
ATOM     17   S  Z9H D   1      27.237  48.109  -4.2770  0.00  0.00     0.000 S
ATOM     18   O  Z9H D   1      26.782  46.590  -4.5840  0.00  0.00     0.000 O
ATOM     19   O  Z9H D   1      28.561  48.442  -4.7190  0.00  0.00     0.000 O
ATOM     20   O  Z9H D   1      26.698  48.541  -3.0360  0.00  0.00     0.000 OA
ATOM     21   O  Z9H D   1      26.255  48.359  -5.2910  0.00  0.00     0.000 OA
ENDBRANCH 5 16
BRANCH 1 22
ATOM     22  O4  GU1 D   2      29.289  42.427  -5.6910  0.00  0.00     0.000 O
BRANCH 22 26
ATOM     23  C1  GU1 D   2      29.890  42.338  -9.7650  0.00  0.00     0.000 C
ATOM     24  C2  GU1 D   2      31.140  42.108  -8.9290  0.00  0.00     0.000 C
ATOM     25  C3  GU1 D   2      30.742  41.784  -7.5180  0.00  0.00     0.000 C
ATOM     26  C4  GU1 D   2      29.805  42.845  -6.9600  0.00  0.00     0.000 C
ATOM     27  C5  GU1 D   2      28.637  43.074  -7.9250  0.00  0.00     0.000 C
ATOM     28  O5  GU1 D   2      29.122  43.406  -9.2240  0.00  0.00     0.000 O
ATOM     29   O  GU1 D   2      31.923  41.031  -9.4290  0.00  0.00     0.000 O
ATOM     30   C  GU1 D   2      32.995  41.440 -10.2670  0.00  0.00     0.000 C
ATOM     31   C  GU1 D   2      32.395  40.440  -6.3980  0.00  0.00     0.000 C
ATOM     32   O  GU1 D   2      31.924  41.748  -6.7120  0.00  0.00     0.000 O
BRANCH 27 33
ATOM     33   C  GU1 D   2      27.755  44.206  -7.4570  0.00  0.00     0.000 C
ATOM     34   O  GU1 D   2      26.693  43.933  -6.9360  0.00  0.00     0.000 OA
ATOM     35   O  GU1 D   2      28.107  45.367  -7.5970  0.00  0.00     0.000 O
ENDBRANCH 27 33
BRANCH 23 36
ATOM     36  O4  GU6 D   3      30.000  42.901 -11.0870  0.00  0.00     0.000 O
BRANCH 36 40
ATOM     37  C1  GU6 D   3      30.234  45.529 -14.2070  0.00  0.00     0.000 C
ATOM     38  C2  GU6 D   3      29.916  44.098 -14.6260  0.00  0.00     0.000 C
ATOM     39  C3  GU6 D   3      29.585  43.278 -13.4070  0.00  0.00     0.000 C
ATOM     40  C4  GU6 D   3      29.831  43.881 -12.0920  0.00  0.00     0.000 C
ATOM     41  C5  GU6 D   3      31.148  44.723 -12.1420  0.00  0.00     0.000 C
ATOM     42  O5  GU6 D   3      31.345  45.506 -13.3250  0.00  0.00     0.000 O
BRANCH 38 43
ATOM     43   O  GU6 D   3      28.831  44.075 -15.5330  0.00  0.00     0.000 O
ATOM     44   S  GU6 D   3      29.237  44.123 -17.0000  0.00  0.00     0.000 S
ATOM     45   O  GU6 D   3      29.503  45.524 -17.3670  0.00  0.00     0.000 OA
ATOM     46   O  GU6 D   3      30.466  43.328 -17.1750  0.00  0.00     0.000 O
ATOM     47   O  GU6 D   3      28.158  43.558 -17.8050  0.00  0.00     0.000 OA
ENDBRANCH 38 43
BRANCH 39 48
ATOM     48   O  GU6 D   3      28.852  42.073 -13.5190  0.00  0.00     0.000 O
ATOM     49   S  GU6 D   3      29.324  40.669 -13.8940  0.00  0.00     0.000 S
ATOM     50   O  GU6 D   3      30.414  40.248 -13.0070  0.00  0.00     0.000 OA
ATOM     51   O  GU6 D   3      28.124  39.847 -13.6870  0.00  0.00     0.000 OA
ATOM     52   O  GU6 D   3      29.789  40.678 -15.2990  0.00  0.00     0.000 O
ENDBRANCH 39 48
BRANCH 41 53
ATOM     53   C  GU6 D   3      32.237  44.840 -11.1090  0.00  0.00     0.000 C
ATOM     54   O  GU6 D   3      33.129  45.622 -11.8610  0.00  0.00     0.000 O
ATOM     55   S  GU6 D   3      34.520  45.963 -11.3100  0.00  0.00     0.000 S
ATOM     56   O  GU6 D   3      35.270  44.689 -11.2240  0.00  0.00     0.000 O
ATOM     57   O  GU6 D   3      35.178  46.892 -12.2410  0.00  0.00     0.000 OA
ATOM     58   O  GU6 D   3      34.327  46.559  -9.9690  0.00  0.00     0.000 OA
ENDBRANCH 41 53
BRANCH 37 59
ATOM     59  O4  Z9K D   4      29.277  46.467 -13.6700  0.00  0.00     0.000 O
BRANCH 59 63
ATOM     60  C1  Z9K D   4      28.319  50.125 -12.5990  0.00  0.00     0.000 C
ATOM     61  C2  Z9K D   4      29.861  50.149 -12.4060  0.00  0.00     0.000 C
ATOM     62  C3  Z9K D   4      30.262  48.735 -13.0140  0.00  0.00     0.000 C
ATOM     63  C4  Z9K D   4      29.423  47.462 -12.6150  0.00  0.00     0.000 C
ATOM     64  C5  Z9K D   4      27.966  47.717 -12.2010  0.00  0.00     0.000 C
ATOM     65  O5  Z9K D   4      27.599  48.868 -13.0050  0.00  0.00     0.000 O
ATOM     66   O  Z9K D   4      31.630  48.372 -12.7530  0.00  0.00     0.000 O
ATOM     67   C  Z9K D   4      32.561  48.886 -13.6920  0.00  0.00     0.000 C
BRANCH 61 68
ATOM     68   O  Z9K D   4      30.370  51.114 -13.2860  0.00  0.00     0.000 O
ATOM     69   O  Z9K D   4      31.780  50.968 -11.1550  0.00  0.00     0.000 OA
ATOM     70   S  Z9K D   4      30.779  51.726 -11.8430  0.00  0.00     0.000 S
ATOM     71   O  Z9K D   4      29.624  52.323 -11.2460  0.00  0.00     0.000 OA
ATOM     72   O  Z9K D   4      31.376  52.652 -12.7510  0.00  0.00     0.000 OA
ENDBRANCH 61 68
BRANCH 64 73
ATOM     73   C  Z9K D   4      27.126  46.428 -12.3240  0.00  0.00     0.000 C
ATOM     74   O  Z9K D   4      26.514  46.144 -13.3940  0.00  0.00     0.000 O
ATOM     75   O  Z9K D   4      27.024  45.612 -11.3750  0.00  0.00     0.000 OA
ENDBRANCH 64 73
BRANCH 60 76
ATOM     76  O4  Z9L D   5      27.297  50.550 -11.6810  0.00  0.00     0.000 O
BRANCH 76 80
ATOM     77  C1  Z9L D   5      23.992  52.777 -11.3760  0.00  0.00     0.000 C
ATOM     78  C2  Z9L D   5      23.577  51.269 -11.0210  0.00  0.00     0.000 C
ATOM     79  C3  Z9L D   5      25.012  50.433 -10.7000  0.00  0.00     0.000 C
ATOM     80  C4  Z9L D   5      25.986  51.006 -11.8980  0.00  0.00     0.000 C
ATOM     81  C5  Z9L D   5      26.240  52.510 -12.4220  0.00  0.00     0.000 C
ATOM     82  O5  Z9L D   5      24.957  53.153 -12.4410  0.00  0.00     0.000 O
ATOM     83   C  Z9L D   5      24.749  54.823 -10.3120  0.00  0.00     0.000 C
ATOM     84   C  Z9L D   5      24.749  54.823 -10.3120  0.00  0.00     0.000 C
BRANCH 78 85
ATOM     85   O  Z9L D   5      22.797  51.296  -9.8690  0.00  0.00     0.000 O
ATOM     86   O  Z9L D   5      20.875  51.412  -9.8360  0.00  0.00     0.000 OA
ATOM     87   S  Z9L D   5      21.671  51.258 -11.0150  0.00  0.00     0.000 S
ATOM     88   O  Z9L D   5      21.376  49.930 -11.4940  0.00  0.00     0.000 OA
ATOM     89   O  Z9L D   5      21.480  52.457 -11.7550  0.00  0.00     0.000 OA
ENDBRANCH 78 85
BRANCH 79 90
ATOM     90   O  Z9L D   5      24.896  49.084 -11.0230  0.00  0.00     0.000 O
ATOM     91   S  Z9L D   5      25.304  48.957  -9.4890  0.00  0.00     0.000 S
ATOM     92   O  Z9L D   5      24.556  49.593  -8.4370  0.00  0.00     0.000 OA
ATOM     93   O  Z9L D   5      26.733  48.792  -9.3880  0.00  0.00     0.000 O
ATOM     94   O  Z9L D   5      24.743  47.659  -9.6820  0.00  0.00     0.000 OA
ENDBRANCH 79 90
BRANCH 81 95
ATOM     95   C  Z9L D   5      27.250  52.702 -13.7480  0.00  0.00     0.000 C
ATOM     96   S  Z9L D   5      27.311  52.975 -15.7200  0.00  0.00     0.000 S
ATOM     97   O  Z9L D   5      26.395  52.170 -14.7230  0.00  0.00     0.000 O
ATOM     98   O  Z9L D   5      28.568  52.274 -15.7850  0.00  0.00     0.000 OA
ATOM     99   O  Z9L D   5      27.258  54.393 -15.6010  0.00  0.00     0.000 OA
ATOM    100   O  Z9L D   5      26.410  52.385 -16.6790  0.00  0.00     0.000 O
ENDBRANCH 81 95
ENDBRANCH 76 80
ENDBRANCH 60 76
ENDBRANCH 59 63
ENDBRANCH 37 59
ENDBRANCH 36 40
ENDBRANCH 23 36
ENDBRANCH 22 26
ENDBRANCH 1 22
TORSDOF 19
ENDMDL
MODEL 64
REMARK VINA RESULT:      -5.5     24.494     30.833
ROOT
ATOM      1  C1  Z9H D   1      15.290   2.630 -44.2370  0.00  0.00     0.000 C
ATOM      2  C2  Z9H D   1      14.415   1.466 -44.7590  0.00  0.00     0.000 C
ATOM      3  C3  Z9H D   1      15.462   0.810 -45.7110  0.00  0.00     0.000 C
ATOM      4  C4  Z9H D   1      16.177   1.800 -46.7200  0.00  0.00     0.000 C
ATOM      5  C5  Z9H D   1      16.794   3.187 -46.2780  0.00  0.00     0.000 C
ATOM      6  O5  Z9H D   1      15.933   3.544 -45.1680  0.00  0.00     0.000 O
ATOM      7   O  Z9H D   1      14.909  -0.303 -46.4150  0.00  0.00     0.000 O
ATOM      8   C  Z9H D   1      15.207  -1.595 -45.8580  0.00  0.00     0.000 C
ATOM      9   O  Z9H D   1      17.230   1.044 -47.3260  0.00  0.00     0.000 O
ATOM     10   C  Z9H D   1      16.942   0.515 -48.6240  0.00  0.00     0.000 C
ENDROOT
BRANCH 2 11
ATOM     11   O  Z9H D   1      14.356   0.620 -43.6410  0.00  0.00     0.000 O
ATOM     12   O  Z9H D   1      12.777   0.241 -42.6810  0.00  0.00     0.000 OA
ATOM     13   S  Z9H D   1      12.843   1.059 -43.8450  0.00  0.00     0.000 S
ATOM     14   O  Z9H D   1      12.344   0.422 -45.0300  0.00  0.00     0.000 OA
ATOM     15   O  Z9H D   1      12.638   2.447 -43.4980  0.00  0.00     0.000 O
ENDBRANCH 2 11
BRANCH 5 16
ATOM     16   C  Z9H D   1      17.093   4.260 -47.5280  0.00  0.00     0.000 C
ATOM     17   S  Z9H D   1      17.972   6.004 -48.0030  0.00  0.00     0.000 S
ATOM     18   O  Z9H D   1      18.342   4.731 -47.0810  0.00  0.00     0.000 O
ATOM     19   O  Z9H D   1      16.876   6.796 -47.5250  0.00  0.00     0.000 O
ATOM     20   O  Z9H D   1      18.165   5.688 -49.3750  0.00  0.00     0.000 OA
ATOM     21   O  Z9H D   1      19.228   6.453 -47.4770  0.00  0.00     0.000 OA
ENDBRANCH 5 16
BRANCH 1 22
ATOM     22  O4  GU1 D   2      16.448   2.217 -43.4250  0.00  0.00     0.000 O
BRANCH 22 26
ATOM     23  C1  GU1 D   2      18.716   3.164 -40.1180  0.00  0.00     0.000 C
ATOM     24  C2  GU1 D   2      17.256   3.585 -40.0350  0.00  0.00     0.000 C
ATOM     25  C3  GU1 D   2      16.470   2.865 -41.0920  0.00  0.00     0.000 C
ATOM     26  C4  GU1 D   2      17.098   3.058 -42.4640  0.00  0.00     0.000 C
ATOM     27  C5  GU1 D   2      18.587   2.706 -42.4140  0.00  0.00     0.000 C
ATOM     28  O5  GU1 D   2      19.245   3.466 -41.4040  0.00  0.00     0.000 O
ATOM     29   O  GU1 D   2      16.685   3.279 -38.7690  0.00  0.00     0.000 O
ATOM     30   C  GU1 D   2      16.680   4.372 -37.8610  0.00  0.00     0.000 C
ATOM     31   C  GU1 D   2      14.159   2.597 -40.4740  0.00  0.00     0.000 C
ATOM     32   O  GU1 D   2      15.144   3.404 -41.1150  0.00  0.00     0.000 O
BRANCH 27 33
ATOM     33   C  GU1 D   2      19.264   3.003 -43.7310  0.00  0.00     0.000 C
ATOM     34   O  GU1 D   2      19.605   2.070 -44.4290  0.00  0.00     0.000 OA
ATOM     35   O  GU1 D   2      19.457   4.156 -44.0840  0.00  0.00     0.000 O
ENDBRANCH 27 33
BRANCH 23 36
ATOM     36  O4  GU6 D   3      19.719   3.889 -39.3800  0.00  0.00     0.000 O
BRANCH 36 40
ATOM     37  C1  GU6 D   3      21.806   5.354 -36.1880  0.00  0.00     0.000 C
ATOM     38  C2  GU6 D   3      22.435   5.675 -37.5380  0.00  0.00     0.000 C
ATOM     39  C3  GU6 D   3      21.465   5.337 -38.6400  0.00  0.00     0.000 C
ATOM     40  C4  GU6 D   3      20.255   4.592 -38.2770  0.00  0.00     0.000 C
ATOM     41  C5  GU6 D   3      20.603   3.532 -37.1800  0.00  0.00     0.000 C
ATOM     42  O5  GU6 D   3      21.497   3.969 -36.1510  0.00  0.00     0.000 O
BRANCH 38 43
ATOM     43   O  GU6 D   3      22.789   7.043 -37.6090  0.00  0.00     0.000 O
ATOM     44   S  GU6 D   3      24.187   7.358 -37.0920  0.00  0.00     0.000 S
ATOM     45   O  GU6 D   3      24.131   7.457 -35.6230  0.00  0.00     0.000 OA
ATOM     46   O  GU6 D   3      25.090   6.258 -37.4750  0.00  0.00     0.000 O
ATOM     47   O  GU6 D   3      24.639   8.610 -37.6920  0.00  0.00     0.000 OA
ENDBRANCH 38 43
BRANCH 39 48
ATOM     48   O  GU6 D   3      21.596   5.913 -39.9250  0.00  0.00     0.000 O
ATOM     49   S  GU6 D   3      22.592   5.604 -41.0420  0.00  0.00     0.000 S
ATOM     50   O  GU6 D   3      22.544   4.177 -41.3810  0.00  0.00     0.000 OA
ATOM     51   O  GU6 D   3      22.111   6.431 -42.1560  0.00  0.00     0.000 OA
ATOM     52   O  GU6 D   3      23.952   5.970 -40.5870  0.00  0.00     0.000 O
ENDBRANCH 39 48
BRANCH 41 53
ATOM     53   C  GU6 D   3      20.115   2.114 -37.0440  0.00  0.00     0.000 C
ATOM     54   O  GU6 D   3      18.988   2.376 -36.2490  0.00  0.00     0.000 O
ATOM     55   S  GU6 D   3      18.141   1.222 -35.6960  0.00  0.00     0.000 S
ATOM     56   O  GU6 D   3      18.996   0.487 -34.7350  0.00  0.00     0.000 O
ATOM     57   O  GU6 D   3      16.964   1.787 -35.0190  0.00  0.00     0.000 OA
ATOM     58   O  GU6 D   3      17.768   0.362 -36.8420  0.00  0.00     0.000 OA
ENDBRANCH 41 53
BRANCH 37 59
ATOM     59  O4  Z9K D   4      20.690   6.059 -35.6050  0.00  0.00     0.000 O
BRANCH 59 63
ATOM     60  C1  Z9K D   4      18.319   8.543 -33.6940  0.00  0.00     0.000 C
ATOM     61  C2  Z9K D   4      19.174   9.531 -34.5350  0.00  0.00     0.000 C
ATOM     62  C3  Z9K D   4      20.002   8.518 -35.4390  0.00  0.00     0.000 C
ATOM     63  C4  Z9K D   4      20.661   7.252 -34.7690  0.00  0.00     0.000 C
ATOM     64  C5  Z9K D   4      19.987   6.740 -33.4870  0.00  0.00     0.000 C
ATOM     65  O5  Z9K D   4      18.589   7.064 -33.7060  0.00  0.00     0.000 O
ATOM     66   O  Z9K D   4      21.070   9.148 -36.1680  0.00  0.00     0.000 O
ATOM     67   C  Z9K D   4      20.678   9.718 -37.4060  0.00  0.00     0.000 C
BRANCH 61 68
ATOM     68   O  Z9K D   4      18.298  10.203 -35.3970  0.00  0.00     0.000 O
ATOM     69   O  Z9K D   4      20.201  11.734 -34.6320  0.00  0.00     0.000 OA
ATOM     70   S  Z9K D   4      18.820  11.405 -34.4450  0.00  0.00     0.000 S
ATOM     71   O  Z9K D   4      18.140  11.333 -33.1880  0.00  0.00     0.000 OA
ATOM     72   O  Z9K D   4      18.000  12.094 -35.3900  0.00  0.00     0.000 OA
ENDBRANCH 61 68
BRANCH 64 73
ATOM     73   C  Z9K D   4      20.375   5.271 -33.2130  0.00  0.00     0.000 C
ATOM     74   O  Z9K D   4      19.573   4.324 -33.4610  0.00  0.00     0.000 O
ATOM     75   O  Z9K D   4      21.496   4.960 -32.7420  0.00  0.00     0.000 OA
ENDBRANCH 64 73
BRANCH 60 76
ATOM     76  O4  Z9L D   5      18.019   8.592 -32.2890  0.00  0.00     0.000 O
BRANCH 76 80
ATOM     77  C1  Z9L D   5      15.415   7.416 -29.4940  0.00  0.00     0.000 C
ATOM     78  C2  Z9L D   5      16.820   6.726 -29.1470  0.00  0.00     0.000 C
ATOM     79  C3  Z9L D   5      18.001   7.563 -30.0220  0.00  0.00     0.000 C
ATOM     80  C4  Z9L D   5      17.246   7.748 -31.4750  0.00  0.00     0.000 C
ATOM     81  C5  Z9L D   5      15.747   8.224 -31.8300  0.00  0.00     0.000 C
ATOM     82  O5  Z9L D   5      14.885   7.595 -30.8700  0.00  0.00     0.000 O
ATOM     83   C  Z9L D   5      14.124   9.413 -29.0050  0.00  0.00     0.000 C
ATOM     84   C  Z9L D   5      14.124   9.413 -29.0050  0.00  0.00     0.000 C
BRANCH 78 85
ATOM     85   O  Z9L D   5      17.058   6.892 -27.7860  0.00  0.00     0.000 O
ATOM     86   O  Z9L D   5      17.022   5.481 -26.4750  0.00  0.00     0.000 OA
ATOM     87   S  Z9L D   5      16.903   5.296 -27.8900  0.00  0.00     0.000 S
ATOM     88   O  Z9L D   5      18.114   4.619 -28.2820  0.00  0.00     0.000 OA
ATOM     89   O  Z9L D   5      15.586   4.800 -28.0920  0.00  0.00     0.000 OA
ENDBRANCH 78 85
BRANCH 79 90
ATOM     90   O  Z9L D   5      19.075   6.736 -30.3430  0.00  0.00     0.000 O
ATOM     91   S  Z9L D   5      19.854   7.908 -29.5960  0.00  0.00     0.000 S
ATOM     92   O  Z9L D   5      19.531   8.314 -28.2530  0.00  0.00     0.000 OA
ATOM     93   O  Z9L D   5      20.322   8.865 -30.5670  0.00  0.00     0.000 O
ATOM     94   O  Z9L D   5      20.843   6.884 -29.5020  0.00  0.00     0.000 OA
ENDBRANCH 79 90
BRANCH 81 95
ATOM     95   C  Z9L D   5      15.296   8.202 -33.4450  0.00  0.00     0.000 C
ATOM     96   S  Z9L D   5      13.760   8.037 -34.7020  0.00  0.00     0.000 S
ATOM     97   O  Z9L D   5      14.153   7.400 -33.3170  0.00  0.00     0.000 O
ATOM     98   O  Z9L D   5      14.623   7.446 -35.6920  0.00  0.00     0.000 OA
ATOM     99   O  Z9L D   5      13.500   9.438 -34.6880  0.00  0.00     0.000 OA
ATOM    100   O  Z9L D   5      12.615   7.179 -34.5250  0.00  0.00     0.000 O
ENDBRANCH 81 95
ENDBRANCH 76 80
ENDBRANCH 60 76
ENDBRANCH 59 63
ENDBRANCH 37 59
ENDBRANCH 36 40
ENDBRANCH 23 36
ENDBRANCH 22 26
ENDBRANCH 1 22
TORSDOF 19
ENDMDL
MODEL 65
REMARK VINA RESULT:      -5.5     22.810     30.240
ROOT
ATOM      1  C1  Z9H D   1      28.507  43.963  -4.2470  0.00  0.00     0.000 C
ATOM      2  C2  Z9H D   1      28.088  42.776  -3.3470  0.00  0.00     0.000 C
ATOM      3  C3  Z9H D   1      26.614  43.210  -3.0790  0.00  0.00     0.000 C
ATOM      4  C4  Z9H D   1      26.425  44.704  -2.5870  0.00  0.00     0.000 C
ATOM      5  C5  Z9H D   1      27.126  45.938  -3.2830  0.00  0.00     0.000 C
ATOM      6  O5  Z9H D   1      28.344  45.332  -3.7840  0.00  0.00     0.000 O
ATOM      7   O  Z9H D   1      25.953  42.307  -2.1900  0.00  0.00     0.000 O
ATOM      8   C  Z9H D   1      25.120  41.320  -2.8220  0.00  0.00     0.000 C
ATOM      9   O  Z9H D   1      25.015  44.947  -2.6160  0.00  0.00     0.000 O
ATOM     10   C  Z9H D   1      24.343  44.836  -1.3580  0.00  0.00     0.000 C
ENDROOT
BRANCH 2 11
ATOM     11   O  Z9H D   1      27.997  41.725  -4.2730  0.00  0.00     0.000 O
ATOM     12   O  Z9H D   1      29.091  40.188  -4.2420  0.00  0.00     0.000 OA
ATOM     13   S  Z9H D   1      29.140  41.239  -3.2810  0.00  0.00     0.000 S
ATOM     14   O  Z9H D   1      28.533  40.904  -2.0240  0.00  0.00     0.000 OA
ATOM     15   O  Z9H D   1      30.350  42.011  -3.4410  0.00  0.00     0.000 O
ENDBRANCH 2 11
BRANCH 5 16
ATOM     16   C  Z9H D   1      27.163  47.340  -2.3700  0.00  0.00     0.000 C
ATOM     17   S  Z9H D   1      26.897  49.332  -2.4300  0.00  0.00     0.000 S
ATOM     18   O  Z9H D   1      26.154  48.042  -3.0550  0.00  0.00     0.000 O
ATOM     19   O  Z9H D   1      28.208  49.586  -2.9570  0.00  0.00     0.000 O
ATOM     20   O  Z9H D   1      26.571  49.466  -1.0530  0.00  0.00     0.000 OA
ATOM     21   O  Z9H D   1      25.877  49.995  -3.1880  0.00  0.00     0.000 OA
ENDBRANCH 5 16
BRANCH 1 22
ATOM     22  O4  GU1 D   2      27.809  44.033  -5.5430  0.00  0.00     0.000 O
BRANCH 22 26
ATOM     23  C1  GU1 D   2      28.227  44.795  -9.5700  0.00  0.00     0.000 C
ATOM     24  C2  GU1 D   2      29.406  44.079  -8.9290  0.00  0.00     0.000 C
ATOM     25  C3  GU1 D   2      28.988  43.526  -7.5970  0.00  0.00     0.000 C
ATOM     26  C4  GU1 D   2      28.370  44.612  -6.7270  0.00  0.00     0.000 C
ATOM     27  C5  GU1 D   2      27.266  45.339  -7.5020  0.00  0.00     0.000 C
ATOM     28  O5  GU1 D   2      27.773  45.851  -8.7310  0.00  0.00     0.000 O
ATOM     29   O  GU1 D   2      29.873  43.001  -9.7300  0.00  0.00     0.000 O
ATOM     30   C  GU1 D   2      30.984  43.334 -10.5510  0.00  0.00     0.000 C
ATOM     31   C  GU1 D   2      30.283  41.597  -6.9710  0.00  0.00     0.000 C
ATOM     32   O  GU1 D   2      30.149  43.016  -6.9350  0.00  0.00     0.000 O
BRANCH 27 33
ATOM     33   C  GU1 D   2      26.716  46.500  -6.7080  0.00  0.00     0.000 C
ATOM     34   O  GU1 D   2      25.524  46.529  -6.4770  0.00  0.00     0.000 OA
ATOM     35   O  GU1 D   2      27.456  47.384  -6.3070  0.00  0.00     0.000 O
ENDBRANCH 27 33
BRANCH 23 36
ATOM     36  O4  GU6 D   3      28.431  45.620 -10.7340  0.00  0.00     0.000 O
BRANCH 36 40
ATOM     37  C1  GU6 D   3      28.603  48.651 -13.4680  0.00  0.00     0.000 C
ATOM     38  C2  GU6 D   3      27.997  47.363 -14.0100  0.00  0.00     0.000 C
ATOM     39  C3  GU6 D   3      27.729  46.413 -12.8730  0.00  0.00     0.000 C
ATOM     40  C4  GU6 D   3      28.270  46.760 -11.5540  0.00  0.00     0.000 C
ATOM     41  C5  GU6 D   3      29.683  47.410 -11.7220  0.00  0.00     0.000 C
ATOM     42  O5  GU6 D   3      29.818  48.336 -12.8070  0.00  0.00     0.000 O
BRANCH 38 43
ATOM     43   O  GU6 D   3      26.795  47.633 -14.7070  0.00  0.00     0.000 O
ATOM     44   S  GU6 D   3      26.938  47.653 -16.2230  0.00  0.00     0.000 S
ATOM     45   O  GU6 D   3      27.460  48.969 -16.6280  0.00  0.00     0.000 OA
ATOM     46   O  GU6 D   3      27.895  46.603 -16.6200  0.00  0.00     0.000 O
ATOM     47   O  GU6 D   3      25.633  47.391 -16.8220  0.00  0.00     0.000 OA
ENDBRANCH 38 43
BRANCH 39 48
ATOM     48   O  GU6 D   3      26.802  45.354 -13.0130  0.00  0.00     0.000 O
ATOM     49   S  GU6 D   3      27.004  43.938 -13.5510  0.00  0.00     0.000 S
ATOM     50   O  GU6 D   3      28.082  43.267 -12.8140  0.00  0.00     0.000 OA
ATOM     51   O  GU6 D   3      25.707  43.296 -13.2950  0.00  0.00     0.000 OA
ATOM     52   O  GU6 D   3      27.345  44.014 -14.9890  0.00  0.00     0.000 O
ENDBRANCH 39 48
BRANCH 41 53
ATOM     53   C  GU6 D   3      30.922  47.211 -10.8930  0.00  0.00     0.000 C
ATOM     54   O  GU6 D   3      30.410  47.676  -9.6700  0.00  0.00     0.000 O
ATOM     55   S  GU6 D   3      31.322  47.804  -8.4430  0.00  0.00     0.000 S
ATOM     56   O  GU6 D   3      32.310  48.864  -8.7540  0.00  0.00     0.000 O
ATOM     57   O  GU6 D   3      30.499  48.184  -7.2860  0.00  0.00     0.000 OA
ATOM     58   O  GU6 D   3      31.987  46.496  -8.2520  0.00  0.00     0.000 OA
ENDBRANCH 41 53
BRANCH 37 59
ATOM     59  O4  Z9K D   4      27.906  49.615 -12.6500  0.00  0.00     0.000 O
BRANCH 59 63
ATOM     60  C1  Z9K D   4      25.351  52.155 -11.0800  0.00  0.00     0.000 C
ATOM     61  C2  Z9K D   4      24.479  50.873 -11.1780  0.00  0.00     0.000 C
ATOM     62  C3  Z9K D   4      25.564  49.805 -11.6380  0.00  0.00     0.000 C
ATOM     63  C4  Z9K D   4      26.571  50.182 -12.7910  0.00  0.00     0.000 C
ATOM     64  C5  Z9K D   4      26.867  51.679 -12.9660  0.00  0.00     0.000 C
ATOM     65  O5  Z9K D   4      26.758  52.190 -11.6110  0.00  0.00     0.000 O
ATOM     66   O  Z9K D   4      24.990  48.550 -12.0450  0.00  0.00     0.000 O
ATOM     67   C  Z9K D   4      24.750  47.644 -10.9810  0.00  0.00     0.000 C
BRANCH 61 68
ATOM     68   O  Z9K D   4      24.113  50.524  -9.8710  0.00  0.00     0.000 O
ATOM     69   O  Z9K D   4      22.235  50.003 -11.5290  0.00  0.00     0.000 OA
ATOM     70   S  Z9K D   4      22.685  50.919 -10.5240  0.00  0.00     0.000 S
ATOM     71   O  Z9K D   4      22.579  52.345 -10.5850  0.00  0.00     0.000 OA
ATOM     72   O  Z9K D   4      22.313  50.470  -9.2220  0.00  0.00     0.000 OA
ENDBRANCH 61 68
BRANCH 64 73
ATOM     73   C  Z9K D   4      28.188  51.892 -13.7350  0.00  0.00     0.000 C
ATOM     74   O  Z9K D   4      28.239  51.778 -14.9950  0.00  0.00     0.000 O
ATOM     75   O  Z9K D   4      29.255  52.190 -13.1460  0.00  0.00     0.000 OA
ENDBRANCH 64 73
BRANCH 60 76
ATOM     76  O4  Z9L D   5      25.033  53.488 -11.5140  0.00  0.00     0.000 O
BRANCH 76 80
ATOM     77  C1  Z9L D   5      25.206  57.324 -10.4060  0.00  0.00     0.000 C
ATOM     78  C2  Z9L D   5      26.036  57.192 -11.7720  0.00  0.00     0.000 C
ATOM     79  C3  Z9L D   5      25.589  55.718 -12.4710  0.00  0.00     0.000 C
ATOM     80  C4  Z9L D   5      25.567  54.735 -11.1500  0.00  0.00     0.000 C
ATOM     81  C5  Z9L D   5      24.930  54.953  -9.6840  0.00  0.00     0.000 C
ATOM     82  O5  Z9L D   5      25.212  56.312  -9.3190  0.00  0.00     0.000 O
ATOM     83   C  Z9L D   5      22.968  57.813  -9.6010  0.00  0.00     0.000 C
ATOM     84   C  Z9L D   5      22.968  57.813  -9.6010  0.00  0.00     0.000 C
BRANCH 78 85
ATOM     85   O  Z9L D   5      25.651  58.232 -12.6140  0.00  0.00     0.000 O
ATOM     86   O  Z9L D   5      26.760  59.728 -13.1040  0.00  0.00     0.000 OA
ATOM     87   S  Z9L D   5      27.192  58.596 -12.3420  0.00  0.00     0.000 S
ATOM     88   O  Z9L D   5      28.115  57.896 -13.2020  0.00  0.00     0.000 OA
ATOM     89   O  Z9L D   5      27.505  59.108 -11.0530  0.00  0.00     0.000 OA
ENDBRANCH 78 85
BRANCH 79 90
ATOM     90   O  Z9L D   5      26.625  55.182 -13.2300  0.00  0.00     0.000 O
ATOM     91   S  Z9L D   5      25.492  55.262 -14.3460  0.00  0.00     0.000 S
ATOM     92   O  Z9L D   5      24.816  56.490 -14.6720  0.00  0.00     0.000 OA
ATOM     93   O  Z9L D   5      24.805  53.996 -14.4200  0.00  0.00     0.000 O
ATOM     94   O  Z9L D   5      26.636  55.171 -15.1930  0.00  0.00     0.000 OA
ENDBRANCH 79 90
BRANCH 81 95
ATOM     95   C  Z9L D   5      25.189  53.749  -8.5460  0.00  0.00     0.000 C
ATOM     96   S  Z9L D   5      26.250  53.229  -6.9420  0.00  0.00     0.000 S
ATOM     97   O  Z9L D   5      26.534  54.032  -8.2670  0.00  0.00     0.000 O
ATOM     98   O  Z9L D   5      26.143  51.841  -7.3130  0.00  0.00     0.000 OA
ATOM     99   O  Z9L D   5      25.324  53.829  -6.0420  0.00  0.00     0.000 OA
ATOM    100   O  Z9L D   5      27.641  53.535  -6.7170  0.00  0.00     0.000 O
ENDBRANCH 81 95
ENDBRANCH 76 80
ENDBRANCH 60 76
ENDBRANCH 59 63
ENDBRANCH 37 59
ENDBRANCH 36 40
ENDBRANCH 23 36
ENDBRANCH 22 26
ENDBRANCH 1 22
TORSDOF 19
ENDMDL
MODEL 66
REMARK VINA RESULT:      -5.5     29.260     36.258
ROOT
ATOM      1  C1  Z9H D   1      13.230  43.911 -32.9550  0.00  0.00     0.000 C
ATOM      2  C2  Z9H D   1      13.909  45.182 -33.5190  0.00  0.00     0.000 C
ATOM      3  C3  Z9H D   1      13.128  45.271 -34.8660  0.00  0.00     0.000 C
ATOM      4  C4  Z9H D   1      13.082  43.934 -35.7150  0.00  0.00     0.000 C
ATOM      5  C5  Z9H D   1      12.722  42.527 -35.0910  0.00  0.00     0.000 C
ATOM      6  O5  Z9H D   1      13.204  42.682 -33.7330  0.00  0.00     0.000 O
ATOM      7   O  Z9H D   1      13.592  46.356 -35.6720  0.00  0.00     0.000 O
ATOM      8   C  Z9H D   1      12.804  47.556 -35.6030  0.00  0.00     0.000 C
ATOM      9   O  Z9H D   1      12.151  44.178 -36.7740  0.00  0.00     0.000 O
ATOM     10   C  Z9H D   1      12.729  44.525 -38.0360  0.00  0.00     0.000 C
ENDROOT
BRANCH 2 11
ATOM     11   O  Z9H D   1      13.361  46.189 -32.7100  0.00  0.00     0.000 O
ATOM     12   O  Z9H D   1      14.356  47.231 -31.4930  0.00  0.00     0.000 OA
ATOM     13   S  Z9H D   1      14.908  46.238 -32.3530  0.00  0.00     0.000 S
ATOM     14   O  Z9H D   1      15.614  46.776 -33.4810  0.00  0.00     0.000 OA
ATOM     15   O  Z9H D   1      15.317  45.081 -31.5910  0.00  0.00     0.000 O
ENDBRANCH 2 11
BRANCH 5 16
ATOM     16   C  Z9H D   1      13.156  41.206 -36.0240  0.00  0.00     0.000 C
ATOM     17   S  Z9H D   1      13.356  39.206 -36.0230  0.00  0.00     0.000 S
ATOM     18   O  Z9H D   1      12.286  40.266 -35.4410  0.00  0.00     0.000 O
ATOM     19   O  Z9H D   1      14.643  39.239 -35.3900  0.00  0.00     0.000 O
ATOM     20   O  Z9H D   1      13.181  39.053 -37.4260  0.00  0.00     0.000 OA
ATOM     21   O  Z9H D   1      12.459  38.299 -35.3700  0.00  0.00     0.000 OA
ENDBRANCH 5 16
BRANCH 1 22
ATOM     22  O4  GU1 D   2      11.798  44.061 -32.6430  0.00  0.00     0.000 O
BRANCH 22 26
ATOM     23  C1  GU1 D   2       8.814  43.052 -29.9880  0.00  0.00     0.000 C
ATOM     24  C2  GU1 D   2      10.192  43.226 -29.3660  0.00  0.00     0.000 C
ATOM     25  C3  GU1 D   2      11.085  43.950 -30.3310  0.00  0.00     0.000 C
ATOM     26  C4  GU1 D   2      11.095  43.258 -31.6860  0.00  0.00     0.000 C
ATOM     27  C5  GU1 D   2       9.660  43.038 -32.1740  0.00  0.00     0.000 C
ATOM     28  O5  GU1 D   2       8.909  42.316 -31.2020  0.00  0.00     0.000 O
ATOM     29   O  GU1 D   2      10.140  43.977 -28.1590  0.00  0.00     0.000 O
ATOM     30   C  GU1 D   2      10.106  43.177 -26.9850  0.00  0.00     0.000 C
ATOM     31   C  GU1 D   2      12.827  45.173 -29.2080  0.00  0.00     0.000 C
ATOM     32   O  GU1 D   2      12.416  43.946 -29.8050  0.00  0.00     0.000 O
BRANCH 27 33
ATOM     33   C  GU1 D   2       9.635  42.246 -33.4600  0.00  0.00     0.000 C
ATOM     34   O  GU1 D   2      10.005  41.090 -33.4330  0.00  0.00     0.000 OA
ATOM     35   O  GU1 D   2       9.248  42.760 -34.4980  0.00  0.00     0.000 O
ENDBRANCH 27 33
BRANCH 23 36
ATOM     36  O4  GU6 D   3       7.849  42.178 -29.3690  0.00  0.00     0.000 O
BRANCH 36 40
ATOM     37  C1  GU6 D   3       4.555  39.943 -28.4470  0.00  0.00     0.000 C
ATOM     38  C2  GU6 D   3       5.182  40.645 -27.2490  0.00  0.00     0.000 C
ATOM     39  C3  GU6 D   3       6.204  41.644 -27.7260  0.00  0.00     0.000 C
ATOM     40  C4  GU6 D   3       6.572  41.616 -29.1460  0.00  0.00     0.000 C
ATOM     41  C5  GU6 D   3       6.625  40.134 -29.6440  0.00  0.00     0.000 C
ATOM     42  O5  GU6 D   3       5.580  39.278 -29.1690  0.00  0.00     0.000 O
BRANCH 38 43
ATOM     43   O  GU6 D   3       4.190  41.298 -26.4800  0.00  0.00     0.000 O
ATOM     44   S  GU6 D   3       4.200  40.935 -25.0010  0.00  0.00     0.000 S
ATOM     45   O  GU6 D   3       3.484  39.659 -24.8270  0.00  0.00     0.000 OA
ATOM     46   O  GU6 D   3       5.599  40.775 -24.5650  0.00  0.00     0.000 O
ATOM     47   O  GU6 D   3       3.562  42.010 -24.2480  0.00  0.00     0.000 OA
ENDBRANCH 38 43
BRANCH 39 48
ATOM     48   O  GU6 D   3       6.617  42.713 -26.8970  0.00  0.00     0.000 O
ATOM     49   S  GU6 D   3       6.178  44.176 -26.8920  0.00  0.00     0.000 S
ATOM     50   O  GU6 D   3       4.720  44.266 -26.7550  0.00  0.00     0.000 OA
ATOM     51   O  GU6 D   3       6.857  44.724 -25.7090  0.00  0.00     0.000 OA
ATOM     52   O  GU6 D   3       6.608  44.810 -28.1580  0.00  0.00     0.000 O
ENDBRANCH 39 48
BRANCH 41 53
ATOM     53   C  GU6 D   3       7.617  39.481 -30.5680  0.00  0.00     0.000 C
ATOM     54   O  GU6 D   3       6.697  38.815 -31.3940  0.00  0.00     0.000 O
ATOM     55   S  GU6 D   3       7.186  37.863 -32.4940  0.00  0.00     0.000 S
ATOM     56   O  GU6 D   3       7.829  36.716 -31.8110  0.00  0.00     0.000 O
ATOM     57   O  GU6 D   3       6.024  37.416 -33.2770  0.00  0.00     0.000 OA
ATOM     58   O  GU6 D   3       8.163  38.608 -33.3180  0.00  0.00     0.000 OA
ENDBRANCH 41 53
BRANCH 37 59
ATOM     59  O4  Z9K D   4       3.687  40.571 -29.4150  0.00  0.00     0.000 O
BRANCH 59 63
ATOM     60  C1  Z9K D   4       0.755  42.577 -31.0960  0.00  0.00     0.000 C
ATOM     61  C2  Z9K D   4       1.838  43.683 -30.9630  0.00  0.00     0.000 C
ATOM     62  C3  Z9K D   4       3.080  42.829 -30.4550  0.00  0.00     0.000 C
ATOM     63  C4  Z9K D   4       2.866  41.771 -29.3060  0.00  0.00     0.000 C
ATOM     64  C5  Z9K D   4       1.450  41.189 -29.1800  0.00  0.00     0.000 C
ATOM     65  O5  Z9K D   4       0.977  41.192 -30.5530  0.00  0.00     0.000 O
ATOM     66   O  Z9K D   4       4.184  43.638 -30.0110  0.00  0.00     0.000 O
ATOM     67   C  Z9K D   4       5.063  44.048 -31.0450  0.00  0.00     0.000 C
BRANCH 61 68
ATOM     68   O  Z9K D   4       2.156  44.106 -32.2600  0.00  0.00     0.000 O
ATOM     69   O  Z9K D   4       2.346  46.032 -30.5850  0.00  0.00     0.000 OA
ATOM     70   S  Z9K D   4       1.532  45.453 -31.6120  0.00  0.00     0.000 S
ATOM     71   O  Z9K D   4       0.106  45.339 -31.5830  0.00  0.00     0.000 OA
ATOM     72   O  Z9K D   4       1.948  45.898 -32.9030  0.00  0.00     0.000 OA
ENDBRANCH 61 68
BRANCH 64 73
ATOM     73   C  Z9K D   4       1.472  39.854 -28.4060  0.00  0.00     0.000 C
ATOM     74   O  Z9K D   4       1.550  38.746 -29.0120  0.00  0.00     0.000 O
ATOM     75   O  Z9K D   4       1.420  39.816 -27.1520  0.00  0.00     0.000 OA
ENDBRANCH 64 73
BRANCH 60 76
ATOM     76  O4  Z9L D   5      -0.629  42.630 -30.7110  0.00  0.00     0.000 O
BRANCH 76 80
ATOM     77  C1  Z9L D   5      -4.351  41.709 -31.8380  0.00  0.00     0.000 C
ATOM     78  C2  Z9L D   5      -4.022  40.828 -30.5390  0.00  0.00     0.000 C
ATOM     79  C3  Z9L D   5      -2.671  41.532 -29.8040  0.00  0.00     0.000 C
ATOM     80  C4  Z9L D   5      -1.735  41.866 -31.1180  0.00  0.00     0.000 C
ATOM     81  C5  Z9L D   5      -2.107  42.548 -32.5320  0.00  0.00     0.000 C
ATOM     82  O5  Z9L D   5      -3.378  42.004 -32.9200  0.00  0.00     0.000 O
ATOM     83   C  Z9L D   5      -5.326  43.840 -32.4730  0.00  0.00     0.000 C
ATOM     84   C  Z9L D   5      -5.326  43.840 -32.4730  0.00  0.00     0.000 C
BRANCH 78 85
ATOM     85   O  Z9L D   5      -5.109  40.914 -29.6730  0.00  0.00     0.000 O
ATOM     86   O  Z9L D   5      -6.313  39.468 -29.2620  0.00  0.00     0.000 OA
ATOM     87   S  Z9L D   5      -5.124  39.352 -30.0510  0.00  0.00     0.000 S
ATOM     88   O  Z9L D   5      -4.224  38.553 -29.2570  0.00  0.00     0.000 OA
ATOM     89   O  Z9L D   5      -5.574  39.021 -31.3590  0.00  0.00     0.000 OA
ENDBRANCH 78 85
BRANCH 79 90
ATOM     90   O  Z9L D   5      -1.911  40.584 -29.1250  0.00  0.00     0.000 O
ATOM     91   S  Z9L D   5      -2.244  41.572 -27.9210  0.00  0.00     0.000 S
ATOM     92   O  Z9L D   5      -3.593  41.921 -27.5610  0.00  0.00     0.000 OA
ATOM     93   O  Z9L D   5      -1.167  42.518 -27.7690  0.00  0.00     0.000 O
ATOM     94   O  Z9L D   5      -1.893  40.410 -27.1700  0.00  0.00     0.000 OA
ENDBRANCH 79 90
BRANCH 81 95
ATOM     95   C  Z9L D   5      -0.892  42.642 -33.6840  0.00  0.00     0.000 C
ATOM     96   S  Z9L D   5      -0.450  43.222 -35.5370  0.00  0.00     0.000 S
ATOM     97   O  Z9L D   5      -1.702  42.585 -34.8270  0.00  0.00     0.000 O
ATOM     98   O  Z9L D   5       0.546  42.186 -35.6320  0.00  0.00     0.000 OA
ATOM     99   O  Z9L D   5      -0.108  44.542 -35.1240  0.00  0.00     0.000 OA
ATOM    100   O  Z9L D   5      -1.322  43.122 -36.6810  0.00  0.00     0.000 O
ENDBRANCH 81 95
ENDBRANCH 76 80
ENDBRANCH 60 76
ENDBRANCH 59 63
ENDBRANCH 37 59
ENDBRANCH 36 40
ENDBRANCH 23 36
ENDBRANCH 22 26
ENDBRANCH 1 22
TORSDOF 19
ENDMDL
MODEL 67
REMARK VINA RESULT:      -5.5     34.976     41.525
ROOT
ATOM      1  C1  Z9H D   1      22.888   5.082 -48.8270  0.00  0.00     0.000 C
ATOM      2  C2  Z9H D   1      23.986   5.560 -47.8470  0.00  0.00     0.000 C
ATOM      3  C3  Z9H D   1      23.279   6.852 -47.3350  0.00  0.00     0.000 C
ATOM      4  C4  Z9H D   1      22.726   7.817 -48.4640  0.00  0.00     0.000 C
ATOM      5  C5  Z9H D   1      21.873   7.308 -49.6940  0.00  0.00     0.000 C
ATOM      6  O5  Z9H D   1      22.395   5.967 -49.8710  0.00  0.00     0.000 O
ATOM      7   O  Z9H D   1      24.105   7.578 -46.4220  0.00  0.00     0.000 O
ATOM      8   C  Z9H D   1      23.823   7.359 -45.0300  0.00  0.00     0.000 C
ATOM      9   O  Z9H D   1      21.941   8.802 -47.7840  0.00  0.00     0.000 O
ATOM     10   C  Z9H D   1      22.592  10.054 -47.5470  0.00  0.00     0.000 C
ENDROOT
BRANCH 2 11
ATOM     11   O  Z9H D   1      23.864   4.636 -46.7980  0.00  0.00     0.000 O
ATOM     12   O  Z9H D   1      25.192   3.381 -46.3310  0.00  0.00     0.000 OA
ATOM     13   S  Z9H D   1      25.322   4.355 -47.3610  0.00  0.00     0.000 S
ATOM     14   O  Z9H D   1      26.163   5.464 -47.0090  0.00  0.00     0.000 OA
ATOM     15   O  Z9H D   1      25.281   3.724 -48.6600  0.00  0.00     0.000 O
ENDBRANCH 2 11
BRANCH 5 16
ATOM     16   C  Z9H D   1      21.771   8.378 -50.9770  0.00  0.00     0.000 C
ATOM     17   S  Z9H D   1      21.687   8.518 -52.9800  0.00  0.00     0.000 S
ATOM     18   O  Z9H D   1      21.042   7.556 -51.8560  0.00  0.00     0.000 O
ATOM     19   O  Z9H D   1      23.106   8.386 -53.1440  0.00  0.00     0.000 O
ATOM     20   O  Z9H D   1      21.013   9.769 -53.0000  0.00  0.00     0.000 OA
ATOM     21   O  Z9H D   1      20.963   7.617 -53.8290  0.00  0.00     0.000 OA
ENDBRANCH 5 16
BRANCH 1 22
ATOM     22  O4  GU1 D   2      21.620   4.686 -48.1900  0.00  0.00     0.000 O
BRANCH 22 26
ATOM     23  C1  GU1 D   2      18.484   2.090 -48.8240  0.00  0.00     0.000 C
ATOM     24  C2  GU1 D   2      19.653   1.928 -49.7840  0.00  0.00     0.000 C
ATOM     25  C3  GU1 D   2      20.855   2.636 -49.2290  0.00  0.00     0.000 C
ATOM     26  C4  GU1 D   2      20.524   4.082 -48.8880  0.00  0.00     0.000 C
ATOM     27  C5  GU1 D   2      19.274   4.140 -48.0050  0.00  0.00     0.000 C
ATOM     28  O5  GU1 D   2      18.187   3.468 -48.6360  0.00  0.00     0.000 O
ATOM     29   O  GU1 D   2      19.995   0.561 -49.9800  0.00  0.00     0.000 O
ATOM     30   C  GU1 D   2      19.422  -0.013 -51.1460  0.00  0.00     0.000 C
ATOM     31   C  GU1 D   2      22.916   1.665 -50.0030  0.00  0.00     0.000 C
ATOM     32   O  GU1 D   2      21.885   2.625 -50.2220  0.00  0.00     0.000 O
BRANCH 27 33
ATOM     33   C  GU1 D   2      18.851   5.567 -47.7500  0.00  0.00     0.000 C
ATOM     34   O  GU1 D   2      18.321   6.183 -48.6520  0.00  0.00     0.000 OA
ATOM     35   O  GU1 D   2      19.036   6.084 -46.6590  0.00  0.00     0.000 O
ENDBRANCH 27 33
BRANCH 23 36
ATOM     36  O4  GU6 D   3      17.155   1.715 -49.2360  0.00  0.00     0.000 O
BRANCH 36 40
ATOM     37  C1  GU6 D   3      13.212   1.673 -50.3050  0.00  0.00     0.000 C
ATOM     38  C2  GU6 D   3      13.469   2.229 -48.9100  0.00  0.00     0.000 C
ATOM     39  C3  GU6 D   3      14.946   2.454 -48.7200  0.00  0.00     0.000 C
ATOM     40  C4  GU6 D   3      15.853   1.924 -49.7440  0.00  0.00     0.000 C
ATOM     41  C5  GU6 D   3      15.325   0.539 -50.2440  0.00  0.00     0.000 C
ATOM     42  O5  GU6 D   3      13.909   0.444 -50.4380  0.00  0.00     0.000 O
BRANCH 38 43
ATOM     43   O  GU6 D   3      12.767   3.442 -48.7210  0.00  0.00     0.000 O
ATOM     44   S  GU6 D   3      11.404   3.284 -48.0590  0.00  0.00     0.000 S
ATOM     45   O  GU6 D   3      10.427   2.888 -49.0870  0.00  0.00     0.000 OA
ATOM     46   O  GU6 D   3      11.497   2.225 -47.0370  0.00  0.00     0.000 O
ATOM     47   O  GU6 D   3      11.035   4.550 -47.4340  0.00  0.00     0.000 OA
ENDBRANCH 38 43
BRANCH 39 48
ATOM     48   O  GU6 D   3      15.424   3.339 -47.7250  0.00  0.00     0.000 O
ATOM     49   S  GU6 D   3      15.616   3.116 -46.2250  0.00  0.00     0.000 S
ATOM     50   O  GU6 D   3      16.474   1.947 -45.9940  0.00  0.00     0.000 OA
ATOM     51   O  GU6 D   3      16.275   4.353 -45.7870  0.00  0.00     0.000 OA
ATOM     52   O  GU6 D   3      14.293   2.904 -45.5980  0.00  0.00     0.000 O
ENDBRANCH 39 48
BRANCH 41 53
ATOM     53   C  GU6 D   3      16.099  -0.710 -50.5670  0.00  0.00     0.000 C
ATOM     54   O  GU6 D   3      15.615  -1.511 -49.5210  0.00  0.00     0.000 O
ATOM     55   S  GU6 D   3      16.179  -2.920 -49.2930  0.00  0.00     0.000 S
ATOM     56   O  GU6 D   3      17.593  -2.753 -48.8860  0.00  0.00     0.000 O
ATOM     57   O  GU6 D   3      15.403  -3.568 -48.2260  0.00  0.00     0.000 OA
ATOM     58   O  GU6 D   3      16.077  -3.646 -50.5790  0.00  0.00     0.000 OA
ENDBRANCH 41 53
BRANCH 37 59
ATOM     59  O4  Z9K D   4      13.395   2.406 -51.5350  0.00  0.00     0.000 O
BRANCH 59 63
ATOM     60  C1  Z9K D   4      13.053   4.867 -54.5810  0.00  0.00     0.000 C
ATOM     61  C2  Z9K D   4      13.635   5.812 -53.4930  0.00  0.00     0.000 C
ATOM     62  C3  Z9K D   4      13.943   4.777 -52.3270  0.00  0.00     0.000 C
ATOM     63  C4  Z9K D   4      12.859   3.695 -51.9540  0.00  0.00     0.000 C
ATOM     64  C5  Z9K D   4      11.888   3.298 -53.0770  0.00  0.00     0.000 C
ATOM     65  O5  Z9K D   4      12.703   3.437 -54.2710  0.00  0.00     0.000 O
ATOM     66   O  Z9K D   4      14.278   5.409 -51.0780  0.00  0.00     0.000 O
ATOM     67   C  Z9K D   4      15.647   5.755 -50.9460  0.00  0.00     0.000 C
BRANCH 61 68
ATOM     68   O  Z9K D   4      14.878   6.261 -53.9600  0.00  0.00     0.000 O
ATOM     69   O  Z9K D   4      13.640   8.112 -52.6980  0.00  0.00     0.000 OA
ATOM     70   S  Z9K D   4      13.997   7.620 -53.9950  0.00  0.00     0.000 S
ATOM     71   O  Z9K D   4      13.143   7.592 -55.1430  0.00  0.00     0.000 OA
ATOM     72   O  Z9K D   4      15.292   8.083 -54.3770  0.00  0.00     0.000 OA
ENDBRANCH 61 68
BRANCH 64 73
ATOM     73   C  Z9K D   4      11.235   1.931 -52.7810  0.00  0.00     0.000 C
ATOM     74   O  Z9K D   4      11.632   0.876 -53.3560  0.00  0.00     0.000 O
ATOM     75   O  Z9K D   4      10.295   1.812 -51.9580  0.00  0.00     0.000 OA
ENDBRANCH 64 73
BRANCH 60 76
ATOM     76  O4  Z9L D   5      11.918   5.080 -55.4360  0.00  0.00     0.000 O
BRANCH 76 80
ATOM     77  C1  Z9L D   5      10.480   4.444 -59.1110  0.00  0.00     0.000 C
ATOM     78  C2  Z9L D   5       9.522   3.662 -58.0890  0.00  0.00     0.000 C
ATOM     79  C3  Z9L D   5       9.837   4.290 -56.5510  0.00  0.00     0.000 C
ATOM     80  C4  Z9L D   5      11.480   4.399 -56.5840  0.00  0.00     0.000 C
ATOM     81  C5  Z9L D   5      12.475   4.978 -57.7130  0.00  0.00     0.000 C
ATOM     82  O5  Z9L D   5      11.956   4.533 -58.9760  0.00  0.00     0.000 O
ATOM     83   C  Z9L D   5      10.699   6.593 -60.2170  0.00  0.00     0.000 C
ATOM     84   C  Z9L D   5      10.699   6.593 -60.2170  0.00  0.00     0.000 C
BRANCH 78 85
ATOM     85   O  Z9L D   5       8.203   3.940 -58.4350  0.00  0.00     0.000 O
ATOM     86   O  Z9L D   5       6.950   2.660 -59.1440  0.00  0.00     0.000 OA
ATOM     87   S  Z9L D   5       8.265   2.352 -58.6700  0.00  0.00     0.000 S
ATOM     88   O  Z9L D   5       8.059   1.578 -57.4710  0.00  0.00     0.000 OA
ATOM     89   O  Z9L D   5       8.981   1.909 -59.8170  0.00  0.00     0.000 OA
ENDBRANCH 78 85
BRANCH 79 90
ATOM     90   O  Z9L D   5       9.617   3.337 -55.5600  0.00  0.00     0.000 O
ATOM     91   S  Z9L D   5       8.613   4.471 -55.0670  0.00  0.00     0.000 S
ATOM     92   O  Z9L D   5       7.574   5.000 -55.9100  0.00  0.00     0.000 OA
ATOM     93   O  Z9L D   5       9.276   5.305 -54.0950  0.00  0.00     0.000 O
ATOM     94   O  Z9L D   5       8.062   3.359 -54.3620  0.00  0.00     0.000 OA
ENDBRANCH 79 90
BRANCH 81 95
ATOM     95   C  Z9L D   5      14.123   4.837 -57.4320  0.00  0.00     0.000 C
ATOM     96   S  Z9L D   5      15.753   3.763 -57.8260  0.00  0.00     0.000 S
ATOM     97   O  Z9L D   5      14.229   3.447 -57.5890  0.00  0.00     0.000 O
ATOM     98   O  Z9L D   5      16.307   4.120 -56.5450  0.00  0.00     0.000 OA
ATOM     99   O  Z9L D   5      16.056   4.511 -58.9990  0.00  0.00     0.000 OA
ATOM    100   O  Z9L D   5      15.804   2.328 -57.9590  0.00  0.00     0.000 O
ENDBRANCH 81 95
ENDBRANCH 76 80
ENDBRANCH 60 76
ENDBRANCH 59 63
ENDBRANCH 37 59
ENDBRANCH 36 40
ENDBRANCH 23 36
ENDBRANCH 22 26
ENDBRANCH 1 22
TORSDOF 19
ENDMDL
MODEL 68
REMARK VINA RESULT:      -5.4     32.098     38.468
ROOT
ATOM      1  C1  Z9H D   1      -3.708  22.683 -20.6870  0.00  0.00     0.000 C
ATOM      2  C2  Z9H D   1      -4.709  22.724 -21.8670  0.00  0.00     0.000 C
ATOM      3  C3  Z9H D   1      -4.813  21.189 -22.1240  0.00  0.00     0.000 C
ATOM      4  C4  Z9H D   1      -3.429  20.429 -22.2630  0.00  0.00     0.000 C
ATOM      5  C5  Z9H D   1      -2.231  20.624 -21.2510  0.00  0.00     0.000 C
ATOM      6  O5  Z9H D   1      -2.434  21.995 -20.8260  0.00  0.00     0.000 O
ATOM      7   O  Z9H D   1      -5.654  20.898 -23.2410  0.00  0.00     0.000 O
ATOM      8   C  Z9H D   1      -7.003  20.524 -22.9160  0.00  0.00     0.000 C
ATOM      9   O  Z9H D   1      -3.752  19.034 -22.2720  0.00  0.00     0.000 O
ATOM     10   C  Z9H D   1      -3.799  18.420 -23.5630  0.00  0.00     0.000 C
ENDROOT
BRANCH 2 11
ATOM     11   O  Z9H D   1      -5.907  23.068 -21.2210  0.00  0.00     0.000 O
ATOM     12   O  Z9H D   1      -6.840  24.682 -21.5090  0.00  0.00     0.000 OA
ATOM     13   S  Z9H D   1      -5.650  24.299 -22.1920  0.00  0.00     0.000 S
ATOM     14   O  Z9H D   1      -5.870  23.864 -23.5410  0.00  0.00     0.000 OA
ATOM     15   O  Z9H D   1      -4.534  25.104 -21.7490  0.00  0.00     0.000 O
ENDBRANCH 2 11
BRANCH 5 16
ATOM     16   C  Z9H D   1      -0.742  20.096 -21.8060  0.00  0.00     0.000 C
ATOM     17   S  Z9H D   1       0.553  20.193 -23.3400  0.00  0.00     0.000 S
ATOM     18   O  Z9H D   1      -0.405  21.234 -22.5620  0.00  0.00     0.000 O
ATOM     19   O  Z9H D   1      -0.138  19.198 -24.1090  0.00  0.00     0.000 O
ATOM     20   O  Z9H D   1       1.707  19.912 -22.5590  0.00  0.00     0.000 OA
ATOM     21   O  Z9H D   1       0.820  21.374 -24.1070  0.00  0.00     0.000 OA
ENDBRANCH 5 16
BRANCH 1 22
ATOM     22  O4  GU1 D   2      -4.223  22.048 -19.4610  0.00  0.00     0.000 O
BRANCH 22 26
ATOM     23  C1  GU1 D   2      -4.328  22.258 -15.3480  0.00  0.00     0.000 C
ATOM     24  C2  GU1 D   2      -4.313  23.604 -16.0570  0.00  0.00     0.000 C
ATOM     25  C3  GU1 D   2      -4.659  23.407 -17.5040  0.00  0.00     0.000 C
ATOM     26  C4  GU1 D   2      -3.760  22.357 -18.1410  0.00  0.00     0.000 C
ATOM     27  C5  GU1 D   2      -3.765  21.080 -17.2950  0.00  0.00     0.000 C
ATOM     28  O5  GU1 D   2      -3.393  21.371 -15.9510  0.00  0.00     0.000 O
ATOM     29   O  GU1 D   2      -5.252  24.512 -15.4950  0.00  0.00     0.000 O
ATOM     30   C  GU1 D   2      -4.689  25.409 -14.5480  0.00  0.00     0.000 C
ATOM     31   C  GU1 D   2      -5.663  25.370 -18.4690  0.00  0.00     0.000 C
ATOM     32   O  GU1 D   2      -4.466  24.650 -18.1880  0.00  0.00     0.000 O
BRANCH 27 33
ATOM     33   C  GU1 D   2      -2.789  20.063 -17.8360  0.00  0.00     0.000 C
ATOM     34   O  GU1 D   2      -1.603  20.252 -17.6630  0.00  0.00     0.000 OA
ATOM     35   O  GU1 D   2      -3.189  19.072 -18.4280  0.00  0.00     0.000 O
ENDBRANCH 27 33
BRANCH 23 36
ATOM     36  O4  GU6 D   3      -3.793  22.140 -14.0150  0.00  0.00     0.000 O
BRANCH 36 40
ATOM     37  C1  GU6 D   3      -2.815  19.555 -11.0050  0.00  0.00     0.000 C
ATOM     38  C2  GU6 D   3      -1.687  19.802 -12.0000  0.00  0.00     0.000 C
ATOM     39  C3  GU6 D   3      -2.048  20.957 -12.8960  0.00  0.00     0.000 C
ATOM     40  C4  GU6 D   3      -3.421  21.470 -12.8270  0.00  0.00     0.000 C
ATOM     41  C5  GU6 D   3      -4.416  20.278 -12.6380  0.00  0.00     0.000 C
ATOM     42  O5  GU6 D   3      -3.998  19.254 -11.7280  0.00  0.00     0.000 O
BRANCH 38 43
ATOM     43   O  GU6 D   3      -0.476  20.076 -11.3220  0.00  0.00     0.000 O
ATOM     44   S  GU6 D   3       0.338  18.840 -10.9620  0.00  0.00     0.000 S
ATOM     45   O  GU6 D   3      -0.214  18.259  -9.7260  0.00  0.00     0.000 OA
ATOM     46   O  GU6 D   3       0.218  17.862 -12.0590  0.00  0.00     0.000 O
ATOM     47   O  GU6 D   3       1.733  19.230 -10.7900  0.00  0.00     0.000 OA
ENDBRANCH 38 43
BRANCH 39 48
ATOM     48   O  GU6 D   3      -1.050  21.669 -13.6020  0.00  0.00     0.000 O
ATOM     49   S  GU6 D   3      -0.538  23.095 -13.4050  0.00  0.00     0.000 S
ATOM     50   O  GU6 D   3      -0.088  23.285 -12.0210  0.00  0.00     0.000 OA
ATOM     51   O  GU6 D   3       0.588  23.178 -14.3450  0.00  0.00     0.000 OA
ATOM     52   O  GU6 D   3      -1.630  24.044 -13.7170  0.00  0.00     0.000 O
ENDBRANCH 39 48
BRANCH 41 53
ATOM     53   C  GU6 D   3      -5.764  20.060 -13.2700  0.00  0.00     0.000 C
ATOM     54   O  GU6 D   3      -5.959  18.734 -12.8530  0.00  0.00     0.000 O
ATOM     55   S  GU6 D   3      -7.182  17.939 -13.3290  0.00  0.00     0.000 S
ATOM     56   O  GU6 D   3      -7.028  17.752 -14.7900  0.00  0.00     0.000 O
ATOM     57   O  GU6 D   3      -7.196  16.642 -12.6370  0.00  0.00     0.000 OA
ATOM     58   O  GU6 D   3      -8.380  18.751 -13.0190  0.00  0.00     0.000 OA
ENDBRANCH 41 53
BRANCH 37 59
ATOM     59  O4  Z9K D   4      -3.182  20.448  -9.9320  0.00  0.00     0.000 O
BRANCH 59 63
ATOM     60  C1  Z9K D   4      -5.336  21.492  -6.8150  0.00  0.00     0.000 C
ATOM     61  C2  Z9K D   4      -6.278  20.464  -7.5000  0.00  0.00     0.000 C
ATOM     62  C3  Z9K D   4      -5.332  19.910  -8.6520  0.00  0.00     0.000 C
ATOM     63  C4  Z9K D   4      -4.492  20.929  -9.5130  0.00  0.00     0.000 C
ATOM     64  C5  Z9K D   4      -4.150  22.264  -8.8340  0.00  0.00     0.000 C
ATOM     65  O5  Z9K D   4      -4.026  21.892  -7.4360  0.00  0.00     0.000 O
ATOM     66   O  Z9K D   4      -6.025  19.096  -9.6150  0.00  0.00     0.000 O
ATOM     67   C  Z9K D   4      -6.147  17.731  -9.2490  0.00  0.00     0.000 C
BRANCH 61 68
ATOM     68   O  Z9K D   4      -6.459  19.407  -6.5980  0.00  0.00     0.000 O
ATOM     69   O  Z9K D   4      -8.565  19.801  -7.9980  0.00  0.00     0.000 OA
ATOM     70   S  Z9K D   4      -7.959  20.007  -6.7170  0.00  0.00     0.000 S
ATOM     71   O  Z9K D   4      -8.046  21.201  -5.9320  0.00  0.00     0.000 OA
ATOM     72   O  Z9K D   4      -8.149  18.870  -5.8750  0.00  0.00     0.000 OA
ENDBRANCH 61 68
BRANCH 64 73
ATOM     73   C  Z9K D   4      -2.952  22.943  -9.5300  0.00  0.00     0.000 C
ATOM     74   O  Z9K D   4      -3.118  23.702 -10.5290  0.00  0.00     0.000 O
ATOM     75   O  Z9K D   4      -1.773  22.775  -9.1320  0.00  0.00     0.000 OA
ENDBRANCH 64 73
BRANCH 60 76
ATOM     76  O4  Z9L D   5      -5.647  22.815  -6.3440  0.00  0.00     0.000 O
BRANCH 76 80
ATOM     77  C1  Z9L D   5      -4.973  25.474  -3.4380  0.00  0.00     0.000 C
ATOM     78  C2  Z9L D   5      -4.365  26.090  -4.7880  0.00  0.00     0.000 C
ATOM     79  C3  Z9L D   5      -5.039  25.213  -6.0680  0.00  0.00     0.000 C
ATOM     80  C4  Z9L D   5      -4.957  23.677  -5.4770  0.00  0.00     0.000 C
ATOM     81  C5  Z9L D   5      -5.353  23.082  -4.0310  0.00  0.00     0.000 C
ATOM     82  O5  Z9L D   5      -4.900  24.039  -3.0620  0.00  0.00     0.000 O
ATOM     83   C  Z9L D   5      -7.018  25.457  -2.1290  0.00  0.00     0.000 C
ATOM     84   C  Z9L D   5      -7.018  25.457  -2.1290  0.00  0.00     0.000 C
BRANCH 78 85
ATOM     85   O  Z9L D   5      -4.773  27.417  -4.8800  0.00  0.00     0.000 O
ATOM     86   O  Z9L D   5      -3.603  28.944  -4.7850  0.00  0.00     0.000 OA
ATOM     87   S  Z9L D   5      -3.175  27.578  -4.8170  0.00  0.00     0.000 S
ATOM     88   O  Z9L D   5      -2.525  27.420  -6.0940  0.00  0.00     0.000 OA
ATOM     89   O  Z9L D   5      -2.565  27.347  -3.5540  0.00  0.00     0.000 OA
ENDBRANCH 78 85
BRANCH 79 90
ATOM     90   O  Z9L D   5      -4.175  25.163  -7.1590  0.00  0.00     0.000 O
ATOM     91   S  Z9L D   5      -5.431  25.862  -7.8450  0.00  0.00     0.000 S
ATOM     92   O  Z9L D   5      -6.008  27.079  -7.3380  0.00  0.00     0.000 OA
ATOM     93   O  Z9L D   5      -6.253  24.857  -8.4720  0.00  0.00     0.000 O
ATOM     94   O  Z9L D   5      -4.425  26.231  -8.7870  0.00  0.00     0.000 OA
ENDBRANCH 79 90
BRANCH 81 95
ATOM     95   C  Z9L D   5      -5.040  21.457  -3.7570  0.00  0.00     0.000 C
ATOM     96   S  Z9L D   5      -4.286  20.142  -2.4650  0.00  0.00     0.000 S
ATOM     97   O  Z9L D   5      -3.935  21.612  -2.9070  0.00  0.00     0.000 O
ATOM     98   O  Z9L D   5      -3.905  19.280  -3.5540  0.00  0.00     0.000 OA
ATOM     99   O  Z9L D   5      -5.529  19.978  -1.7900  0.00  0.00     0.000 OA
ATOM    100   O  Z9L D   5      -3.132  20.353  -1.6260  0.00  0.00     0.000 O
ENDBRANCH 81 95
ENDBRANCH 76 80
ENDBRANCH 60 76
ENDBRANCH 59 63
ENDBRANCH 37 59
ENDBRANCH 36 40
ENDBRANCH 23 36
ENDBRANCH 22 26
ENDBRANCH 1 22
TORSDOF 19
ENDMDL
MODEL 69
REMARK VINA RESULT:      -5.4     31.501     38.156
ROOT
ATOM      1  C1  Z9H D   1      -3.164  22.523 -21.4500  0.00  0.00     0.000 C
ATOM      2  C2  Z9H D   1      -4.110  22.605 -22.6720  0.00  0.00     0.000 C
ATOM      3  C3  Z9H D   1      -4.158  21.085 -23.0180  0.00  0.00     0.000 C
ATOM      4  C4  Z9H D   1      -2.749  20.370 -23.1320  0.00  0.00     0.000 C
ATOM      5  C5  Z9H D   1      -1.604  20.538 -22.0560  0.00  0.00     0.000 C
ATOM      6  O5  Z9H D   1      -1.866  21.878 -21.5660  0.00  0.00     0.000 O
ATOM      7   O  Z9H D   1      -4.938  20.837 -24.1890  0.00  0.00     0.000 O
ATOM      8   C  Z9H D   1      -6.290  20.410 -23.9500  0.00  0.00     0.000 C
ATOM      9   O  Z9H D   1      -3.031  18.970 -23.2340  0.00  0.00     0.000 O
ATOM     10   C  Z9H D   1      -3.001  18.429 -24.5580  0.00  0.00     0.000 C
ENDROOT
BRANCH 2 11
ATOM     11   O  Z9H D   1      -5.346  22.882 -22.0670  0.00  0.00     0.000 O
ATOM     12   O  Z9H D   1      -6.307  24.487 -22.3060  0.00  0.00     0.000 OA
ATOM     13   S  Z9H D   1      -5.076  24.174 -22.9510  0.00  0.00     0.000 S
ATOM     14   O  Z9H D   1      -5.221  23.814 -24.3330  0.00  0.00     0.000 OA
ATOM     15   O  Z9H D   1      -4.005  24.978 -22.4090  0.00  0.00     0.000 O
ENDBRANCH 2 11
BRANCH 5 16
ATOM     16   C  Z9H D   1      -0.078  20.081 -22.5660  0.00  0.00     0.000 C
ATOM     17   S  Z9H D   1       1.343  20.406 -23.9500  0.00  0.00     0.000 S
ATOM     18   O  Z9H D   1       0.329  21.322 -23.0910  0.00  0.00     0.000 O
ATOM     19   O  Z9H D   1       0.714  19.568 -24.9300  0.00  0.00     0.000 O
ATOM     20   O  Z9H D   1       2.426  19.976 -23.1360  0.00  0.00     0.000 OA
ATOM     21   O  Z9H D   1       1.681  21.694 -24.4830  0.00  0.00     0.000 OA
ENDBRANCH 5 16
BRANCH 1 22
ATOM     22  O4  GU1 D   2      -3.717  21.808 -20.2870  0.00  0.00     0.000 O
BRANCH 22 26
ATOM     23  C1  GU1 D   2      -3.953  21.799 -16.1740  0.00  0.00     0.000 C
ATOM     24  C2  GU1 D   2      -3.817  23.177 -16.8040  0.00  0.00     0.000 C
ATOM     25  C3  GU1 D   2      -4.124  23.086 -18.2710  0.00  0.00     0.000 C
ATOM     26  C4  GU1 D   2      -3.280  22.009 -18.9370  0.00  0.00     0.000 C
ATOM     27  C5  GU1 D   2      -3.407  20.692 -18.1670  0.00  0.00     0.000 C
ATOM     28  O5  GU1 D   2      -3.063  20.880 -16.7970  0.00  0.00     0.000 O
ATOM     29   O  GU1 D   2      -4.709  24.119 -16.2210  0.00  0.00     0.000 O
ATOM     30   C  GU1 D   2      -4.117  24.919 -15.2070  0.00  0.00     0.000 C
ATOM     31   C  GU1 D   2      -4.951  25.167 -19.1530  0.00  0.00     0.000 C
ATOM     32   O  GU1 D   2      -3.819  24.346 -18.8760  0.00  0.00     0.000 O
BRANCH 27 33
ATOM     33   C  GU1 D   2      -2.487  19.637 -18.7340  0.00  0.00     0.000 C
ATOM     34   O  GU1 D   2      -2.950  18.821 -19.5050  0.00  0.00     0.000 OA
ATOM     35   O  GU1 D   2      -1.306  19.611 -18.4250  0.00  0.00     0.000 O
ENDBRANCH 27 33
BRANCH 23 36
ATOM     36  O4  GU6 D   3      -3.476  21.569 -14.8340  0.00  0.00     0.000 O
BRANCH 36 40
ATOM     37  C1  GU6 D   3      -3.584  19.543 -11.2870  0.00  0.00     0.000 C
ATOM     38  C2  GU6 D   3      -2.177  19.764 -11.8310  0.00  0.00     0.000 C
ATOM     39  C3  GU6 D   3      -2.227  20.741 -12.9770  0.00  0.00     0.000 C
ATOM     40  C4  GU6 D   3      -3.547  21.113 -13.4980  0.00  0.00     0.000 C
ATOM     41  C5  GU6 D   3      -4.486  19.862 -13.4870  0.00  0.00     0.000 C
ATOM     42  O5  GU6 D   3      -4.395  19.023 -12.3290  0.00  0.00     0.000 O
BRANCH 38 43
ATOM     43   O  GU6 D   3      -1.323  20.254 -10.8150  0.00  0.00     0.000 O
ATOM     44   S  GU6 D   3      -0.403  19.205 -10.2060  0.00  0.00     0.000 S
ATOM     45   O  GU6 D   3      -1.161  18.449  -9.1940  0.00  0.00     0.000 OA
ATOM     46   O  GU6 D   3       0.037  18.288 -11.2730  0.00  0.00     0.000 O
ATOM     47   O  GU6 D   3       0.751  19.876  -9.6160  0.00  0.00     0.000 OA
ENDBRANCH 38 43
BRANCH 39 48
ATOM     48   O  GU6 D   3      -1.069  21.447 -13.3800  0.00  0.00     0.000 O
ATOM     49   S  GU6 D   3      -0.605  22.857 -13.0170  0.00  0.00     0.000 S
ATOM     50   O  GU6 D   3      -0.527  23.004 -11.5590  0.00  0.00     0.000 OA
ATOM     51   O  GU6 D   3       0.727  22.937 -13.6310  0.00  0.00     0.000 OA
ATOM     52   O  GU6 D   3      -1.565  23.836 -13.5740  0.00  0.00     0.000 O
ENDBRANCH 39 48
BRANCH 41 53
ATOM     53   C  GU6 D   3      -5.487  19.420 -14.5190  0.00  0.00     0.000 C
ATOM     54   O  GU6 D   3      -4.957  18.143 -14.7650  0.00  0.00     0.000 O
ATOM     55   S  GU6 D   3      -5.551  17.252 -15.8650  0.00  0.00     0.000 S
ATOM     56   O  GU6 D   3      -5.272  17.924 -17.1550  0.00  0.00     0.000 O
ATOM     57   O  GU6 D   3      -4.893  15.939 -15.8090  0.00  0.00     0.000 OA
ATOM     58   O  GU6 D   3      -7.007  17.160 -15.6170  0.00  0.00     0.000 OA
ENDBRANCH 41 53
BRANCH 37 59
ATOM     59  O4  Z9K D   4      -4.366  20.533 -10.5870  0.00  0.00     0.000 O
BRANCH 59 63
ATOM     60  C1  Z9K D   4      -4.833  19.872  -6.7410  0.00  0.00     0.000 C
ATOM     61  C2  Z9K D   4      -5.764  18.786  -7.3480  0.00  0.00     0.000 C
ATOM     62  C3  Z9K D   4      -5.431  18.935  -8.8960  0.00  0.00     0.000 C
ATOM     63  C4  Z9K D   4      -5.358  20.376  -9.5300  0.00  0.00     0.000 C
ATOM     64  C5  Z9K D   4      -4.996  21.519  -8.5680  0.00  0.00     0.000 C
ATOM     65  O5  Z9K D   4      -4.119  20.869  -7.6110  0.00  0.00     0.000 O
ATOM     66   O  Z9K D   4      -6.334  18.204  -9.7440  0.00  0.00     0.000 O
ATOM     67   C  Z9K D   4      -5.982  16.844  -9.9400  0.00  0.00     0.000 C
BRANCH 61 68
ATOM     68   O  Z9K D   4      -5.255  17.541  -6.9540  0.00  0.00     0.000 O
ATOM     69   O  Z9K D   4      -7.803  17.471  -7.1790  0.00  0.00     0.000 OA
ATOM     70   S  Z9K D   4      -6.715  17.544  -6.2520  0.00  0.00     0.000 S
ATOM     71   O  Z9K D   4      -6.667  18.365  -5.0810  0.00  0.00     0.000 OA
ATOM     72   O  Z9K D   4      -6.225  16.240  -5.9380  0.00  0.00     0.000 OA
ENDBRANCH 61 68
BRANCH 64 73
ATOM     73   C  Z9K D   4      -4.469  22.744  -9.3450  0.00  0.00     0.000 C
ATOM     74   O  Z9K D   4      -5.244  23.460 -10.0440  0.00  0.00     0.000 O
ATOM     75   O  Z9K D   4      -3.261  23.080  -9.3090  0.00  0.00     0.000 OA
ENDBRANCH 64 73
BRANCH 60 76
ATOM     76  O4  Z9L D   5      -5.124  20.818  -5.6980  0.00  0.00     0.000 O
BRANCH 76 80
ATOM     77  C1  Z9L D   5      -3.782  22.479  -2.3200  0.00  0.00     0.000 C
ATOM     78  C2  Z9L D   5      -3.807  23.634  -3.4340  0.00  0.00     0.000 C
ATOM     79  C3  Z9L D   5      -4.784  23.071  -4.6950  0.00  0.00     0.000 C
ATOM     80  C4  Z9L D   5      -4.284  21.505  -4.8070  0.00  0.00     0.000 C
ATOM     81  C5  Z9L D   5      -4.031  20.394  -3.6660  0.00  0.00     0.000 C
ATOM     82  O5  Z9L D   5      -3.384  21.072  -2.5790  0.00  0.00     0.000 O
ATOM     83   C  Z9L D   5      -5.173  21.506  -0.5850  0.00  0.00     0.000 C
ATOM     84   C  Z9L D   5      -5.173  21.506  -0.5850  0.00  0.00     0.000 C
BRANCH 78 85
ATOM     85   O  Z9L D   5      -4.394  24.764  -2.8710  0.00  0.00     0.000 O
ATOM     86   O  Z9L D   5      -3.475  26.413  -2.4870  0.00  0.00     0.000 OA
ATOM     87   S  Z9L D   5      -2.908  25.295  -3.1790  0.00  0.00     0.000 S
ATOM     88   O  Z9L D   5      -2.722  25.749  -4.5350  0.00  0.00     0.000 OA
ATOM     89   O  Z9L D   5      -1.875  24.813  -2.3280  0.00  0.00     0.000 OA
ENDBRANCH 78 85
BRANCH 79 90
ATOM     90   O  Z9L D   5      -4.388  23.603  -5.9190  0.00  0.00     0.000 O
ATOM     91   S  Z9L D   5      -5.885  24.145  -5.8630  0.00  0.00     0.000 S
ATOM     92   O  Z9L D   5      -6.376  24.940  -4.7670  0.00  0.00     0.000 OA
ATOM     93   O  Z9L D   5      -6.751  23.228  -6.5610  0.00  0.00     0.000 O
ATOM     94   O  Z9L D   5      -5.354  25.047  -6.8340  0.00  0.00     0.000 OA
ENDBRANCH 79 90
BRANCH 81 95
ATOM     95   C  Z9L D   5      -3.424  18.910  -4.1570  0.00  0.00     0.000 C
ATOM     96   S  Z9L D   5      -1.885  17.654  -4.0130  0.00  0.00     0.000 S
ATOM     97   O  Z9L D   5      -2.059  19.219  -4.0680  0.00  0.00     0.000 O
ATOM     98   O  Z9L D   5      -2.155  17.161  -5.3400  0.00  0.00     0.000 OA
ATOM     99   O  Z9L D   5      -2.420  17.012  -2.8610  0.00  0.00     0.000 OA
ATOM    100   O  Z9L D   5      -0.495  18.032  -3.9410  0.00  0.00     0.000 O
ENDBRANCH 81 95
ENDBRANCH 76 80
ENDBRANCH 60 76
ENDBRANCH 59 63
ENDBRANCH 37 59
ENDBRANCH 36 40
ENDBRANCH 23 36
ENDBRANCH 22 26
ENDBRANCH 1 22
TORSDOF 19
ENDMDL
MODEL 70
REMARK VINA RESULT:      -5.4     18.829     25.983
ROOT
ATOM      1  C1  Z9H D   1      29.056  42.759  -4.0100  0.00  0.00     0.000 C
ATOM      2  C2  Z9H D   1      28.264  42.281  -2.7700  0.00  0.00     0.000 C
ATOM      3  C3  Z9H D   1      26.957  43.096  -3.0140  0.00  0.00     0.000 C
ATOM      4  C4  Z9H D   1      27.162  44.641  -3.2970  0.00  0.00     0.000 C
ATOM      5  C5  Z9H D   1      28.224  45.197  -4.3270  0.00  0.00     0.000 C
ATOM      6  O5  Z9H D   1      29.254  44.179  -4.2570  0.00  0.00     0.000 O
ATOM      7   O  Z9H D   1      26.012  42.905  -1.9590  0.00  0.00     0.000 O
ATOM      8   C  Z9H D   1      24.979  41.941  -2.2230  0.00  0.00     0.000 C
ATOM      9   O  Z9H D   1      25.882  45.136  -3.7030  0.00  0.00     0.000 O
ATOM     10   C  Z9H D   1      25.125  45.799  -2.6850  0.00  0.00     0.000 C
ENDROOT
BRANCH 2 11
ATOM     11   O  Z9H D   1      27.942  40.960  -3.1190  0.00  0.00     0.000 O
ATOM     12   O  Z9H D   1      28.591  39.438  -2.2150  0.00  0.00     0.000 OA
ATOM     13   S  Z9H D   1      28.870  40.783  -1.8420  0.00  0.00     0.000 S
ATOM     14   O  Z9H D   1      28.141  41.229  -0.6890  0.00  0.00     0.000 OA
ATOM     15   O  Z9H D   1      30.247  41.111  -2.1330  0.00  0.00     0.000 O
ENDBRANCH 2 11
BRANCH 5 16
ATOM     16   C  Z9H D   1      28.594  46.821  -4.1580  0.00  0.00     0.000 C
ATOM     17   S  Z9H D   1      29.302  48.440  -5.1160  0.00  0.00     0.000 S
ATOM     18   O  Z9H D   1      28.305  47.222  -5.4750  0.00  0.00     0.000 O
ATOM     19   O  Z9H D   1      30.675  48.062  -4.9380  0.00  0.00     0.000 O
ATOM     20   O  Z9H D   1      28.640  49.387  -4.2880  0.00  0.00     0.000 OA
ATOM     21   O  Z9H D   1      29.009  48.772  -6.4790  0.00  0.00     0.000 OA
ENDBRANCH 5 16
BRANCH 1 22
ATOM     22  O4  GU1 D   2      28.492  42.338  -5.3050  0.00  0.00     0.000 O
BRANCH 22 26
ATOM     23  C1  GU1 D   2      29.407  41.256  -9.1730  0.00  0.00     0.000 C
ATOM     24  C2  GU1 D   2      30.443  40.854  -8.1340  0.00  0.00     0.000 C
ATOM     25  C3  GU1 D   2      29.837  40.950  -6.7640  0.00  0.00     0.000 C
ATOM     26  C4  GU1 D   2      29.225  42.325  -6.5350  0.00  0.00     0.000 C
ATOM     27  C5  GU1 D   2      28.279  42.676  -7.6870  0.00  0.00     0.000 C
ATOM     28  O5  GU1 D   2      28.959  42.586  -8.9360  0.00  0.00     0.000 O
ATOM     29   O  GU1 D   2      30.899  39.520  -8.3260  0.00  0.00     0.000 O
ATOM     30   C  GU1 D   2      32.116  39.428  -9.0520  0.00  0.00     0.000 C
ATOM     31   C  GU1 D   2      30.884  39.447  -5.2040  0.00  0.00     0.000 C
ATOM     32   O  GU1 D   2      30.871  40.743  -5.7970  0.00  0.00     0.000 O
BRANCH 27 33
ATOM     33   C  GU1 D   2      27.750  44.084  -7.5500  0.00  0.00     0.000 C
ATOM     34   O  GU1 D   2      26.706  44.253  -6.9530  0.00  0.00     0.000 OA
ATOM     35   O  GU1 D   2      28.363  45.027  -8.0250  0.00  0.00     0.000 O
ENDBRANCH 27 33
BRANCH 23 36
ATOM     36  O4  GU6 D   3      29.806  41.484 -10.5390  0.00  0.00     0.000 O
BRANCH 36 40
ATOM     37  C1  GU6 D   3      31.280  43.313 -13.8830  0.00  0.00     0.000 C
ATOM     38  C2  GU6 D   3      30.699  41.928 -14.1400  0.00  0.00     0.000 C
ATOM     39  C3  GU6 D   3      29.948  41.461 -12.9210  0.00  0.00     0.000 C
ATOM     40  C4  GU6 D   3      30.082  42.252 -11.6930  0.00  0.00     0.000 C
ATOM     41  C5  GU6 D   3      31.553  42.769 -11.5620  0.00  0.00     0.000 C
ATOM     42  O5  GU6 D   3      32.161  43.235 -12.7730  0.00  0.00     0.000 O
BRANCH 38 43
ATOM     43   O  GU6 D   3      29.836  41.950 -15.2600  0.00  0.00     0.000 O
ATOM     44   S  GU6 D   3      30.501  41.565 -16.5750  0.00  0.00     0.000 S
ATOM     45   O  GU6 D   3      31.208  42.744 -17.1050  0.00  0.00     0.000 OA
ATOM     46   O  GU6 D   3      31.473  40.488 -16.3130  0.00  0.00     0.000 O
ATOM     47   O  GU6 D   3      29.476  41.099 -17.5030  0.00  0.00     0.000 OA
ENDBRANCH 38 43
BRANCH 39 48
ATOM     48   O  GU6 D   3      28.971  40.441 -13.0160  0.00  0.00     0.000 O
ATOM     49   S  GU6 D   3      29.137  38.922 -13.0200  0.00  0.00     0.000 S
ATOM     50   O  GU6 D   3      29.874  38.491 -11.8270  0.00  0.00     0.000 OA
ATOM     51   O  GU6 D   3      27.750  38.436 -12.9920  0.00  0.00     0.000 OA
ATOM     52   O  GU6 D   3      29.871  38.523 -14.2410  0.00  0.00     0.000 O
ENDBRANCH 39 48
BRANCH 41 53
ATOM     53   C  GU6 D   3      32.420  42.860 -10.3360  0.00  0.00     0.000 C
ATOM     54   O  GU6 D   3      31.839  44.010  -9.7770  0.00  0.00     0.000 O
ATOM     55   S  GU6 D   3      32.432  44.645  -8.5120  0.00  0.00     0.000 S
ATOM     56   O  GU6 D   3      33.772  45.160  -8.8810  0.00  0.00     0.000 O
ATOM     57   O  GU6 D   3      31.553  45.743  -8.0830  0.00  0.00     0.000 OA
ATOM     58   O  GU6 D   3      32.534  43.579  -7.4910  0.00  0.00     0.000 OA
ENDBRANCH 41 53
BRANCH 37 59
ATOM     59  O4  Z9K D   4      30.505  44.521 -13.7320  0.00  0.00     0.000 O
BRANCH 59 63
ATOM     60  C1  Z9K D   4      27.928  47.470 -14.0580  0.00  0.00     0.000 C
ATOM     61  C2  Z9K D   4      26.993  46.237 -14.1980  0.00  0.00     0.000 C
ATOM     62  C3  Z9K D   4      28.007  45.053 -13.8820  0.00  0.00     0.000 C
ATOM     63  C4  Z9K D   4      29.431  45.062 -14.5560  0.00  0.00     0.000 C
ATOM     64  C5  Z9K D   4      29.983  46.440 -14.9500  0.00  0.00     0.000 C
ATOM     65  O5  Z9K D   4      29.419  47.315 -13.9380  0.00  0.00     0.000 O
ATOM     66   O  Z9K D   4      27.468  43.751 -14.1720  0.00  0.00     0.000 O
ATOM     67   C  Z9K D   4      26.698  43.188 -13.1220  0.00  0.00     0.000 C
BRANCH 61 68
ATOM     68   O  Z9K D   4      26.092  46.280 -13.1250  0.00  0.00     0.000 O
ATOM     69   O  Z9K D   4      25.043  45.157 -15.1710  0.00  0.00     0.000 OA
ATOM     70   S  Z9K D   4      25.098  46.363 -14.4010  0.00  0.00     0.000 S
ATOM     71   O  Z9K D   4      25.129  47.692 -14.9300  0.00  0.00     0.000 OA
ATOM     72   O  Z9K D   4      24.186  46.310 -13.3040  0.00  0.00     0.000 OA
ENDBRANCH 61 68
BRANCH 64 73
ATOM     73   C  Z9K D   4      31.516  46.391 -15.1180  0.00  0.00     0.000 C
ATOM     74   O  Z9K D   4      32.047  45.884 -16.1480  0.00  0.00     0.000 O
ATOM     75   O  Z9K D   4      32.292  46.855 -14.2460  0.00  0.00     0.000 OA
ENDBRANCH 64 73
BRANCH 60 76
ATOM     76  O4  Z9L D   5      28.002  48.635 -14.8970  0.00  0.00     0.000 O
BRANCH 76 80
ATOM     77  C1  Z9L D   5      28.090  52.631 -14.9400  0.00  0.00     0.000 C
ATOM     78  C2  Z9L D   5      29.522  52.124 -15.4560  0.00  0.00     0.000 C
ATOM     79  C3  Z9L D   5      29.338  50.495 -15.8740  0.00  0.00     0.000 C
ATOM     80  C4  Z9L D   5      28.412  49.951 -14.6250  0.00  0.00     0.000 C
ATOM     81  C5  Z9L D   5      27.092  50.575 -13.9410  0.00  0.00     0.000 C
ATOM     82  O5  Z9L D   5      27.317  51.990 -13.8460  0.00  0.00     0.000 O
ATOM     83   C  Z9L D   5      25.903  53.266 -15.7790  0.00  0.00     0.000 C
ATOM     84   C  Z9L D   5      25.903  53.266 -15.7790  0.00  0.00     0.000 C
BRANCH 78 85
ATOM     85   O  Z9L D   5      29.853  52.852 -16.5940  0.00  0.00     0.000 O
ATOM     86   O  Z9L D   5      31.257  54.168 -16.6970  0.00  0.00     0.000 OA
ATOM     87   S  Z9L D   5      30.995  53.328 -15.5680  0.00  0.00     0.000 S
ATOM     88   O  Z9L D   5      32.123  52.433 -15.4970  0.00  0.00     0.000 OA
ATOM     89   O  Z9L D   5      30.586  54.212 -14.5310  0.00  0.00     0.000 OA
ENDBRANCH 78 85
BRANCH 79 90
ATOM     90   O  Z9L D   5      30.526  49.790 -15.6990  0.00  0.00     0.000 O
ATOM     91   S  Z9L D   5      30.301  49.552 -17.2580  0.00  0.00     0.000 S
ATOM     92   O  Z9L D   5      30.146  50.638 -18.1890  0.00  0.00     0.000 OA
ATOM     93   O  Z9L D   5      29.608  48.302 -17.4540  0.00  0.00     0.000 O
ATOM     94   O  Z9L D   5      31.694  49.254 -17.1830  0.00  0.00     0.000 OA
ENDBRANCH 79 90
BRANCH 81 95
ATOM     95   C  Z9L D   5      26.464  49.774 -12.6080  0.00  0.00     0.000 C
ATOM     96   S  Z9L D   5      25.116  49.862 -11.1450  0.00  0.00     0.000 S
ATOM     97   O  Z9L D   5      26.039  50.900 -11.8870  0.00  0.00     0.000 O
ATOM     98   O  Z9L D   5      25.975  49.076 -10.2960  0.00  0.00     0.000 OA
ATOM     99   O  Z9L D   5      24.102  49.255 -11.9400  0.00  0.00     0.000 OA
ATOM    100   O  Z9L D   5      24.730  51.051 -10.4250  0.00  0.00     0.000 O
ENDBRANCH 81 95
ENDBRANCH 76 80
ENDBRANCH 60 76
ENDBRANCH 59 63
ENDBRANCH 37 59
ENDBRANCH 36 40
ENDBRANCH 23 36
ENDBRANCH 22 26
ENDBRANCH 1 22
TORSDOF 19
ENDMDL
MODEL 71
REMARK VINA RESULT:      -5.4     32.706     39.172
ROOT
ATOM      1  C1  Z9H D   1      22.804   5.503 -48.0890  0.00  0.00     0.000 C
ATOM      2  C2  Z9H D   1      23.895   6.486 -47.5990  0.00  0.00     0.000 C
ATOM      3  C3  Z9H D   1      23.083   7.809 -47.7450  0.00  0.00     0.000 C
ATOM      4  C4  Z9H D   1      22.374   8.021 -49.1470  0.00  0.00     0.000 C
ATOM      5  C5  Z9H D   1      21.518   6.900 -49.8600  0.00  0.00     0.000 C
ATOM      6  O5  Z9H D   1      22.168   5.695 -49.3830  0.00  0.00     0.000 O
ATOM      7   O  Z9H D   1      23.874   8.951 -47.4110  0.00  0.00     0.000 O
ATOM      8   C  Z9H D   1      23.688   9.460 -46.0790  0.00  0.00     0.000 C
ATOM      9   O  Z9H D   1      21.526   9.162 -48.9850  0.00  0.00     0.000 O
ATOM     10   C  Z9H D   1      22.053  10.398 -49.4790  0.00  0.00     0.000 C
ENDROOT
BRANCH 2 11
ATOM     11   O  Z9H D   1      23.924   6.225 -46.2200  0.00  0.00     0.000 O
ATOM     12   O  Z9H D   1      25.407   5.493 -45.3120  0.00  0.00     0.000 OA
ATOM     13   S  Z9H D   1      25.380   5.807 -46.7010  0.00  0.00     0.000 S
ATOM     14   O  Z9H D   1      26.102   7.000 -47.0400  0.00  0.00     0.000 OA
ATOM     15   O  Z9H D   1      25.355   4.598 -47.4910  0.00  0.00     0.000 O
ENDBRANCH 2 11
BRANCH 5 16
ATOM     16   C  Z9H D   1      21.238   7.152 -51.4900  0.00  0.00     0.000 C
ATOM     17   S  Z9H D   1      22.116   7.280 -53.2940  0.00  0.00     0.000 S
ATOM     18   O  Z9H D   1      22.274   6.341 -51.9900  0.00  0.00     0.000 O
ATOM     19   O  Z9H D   1      22.520   8.644 -53.1060  0.00  0.00     0.000 O
ATOM     20   O  Z9H D   1      20.962   6.904 -54.0330  0.00  0.00     0.000 OA
ATOM     21   O  Z9H D   1      23.204   6.454 -53.7300  0.00  0.00     0.000 OA
ENDBRANCH 5 16
BRANCH 1 22
ATOM     22  O4  GU1 D   2      21.619   5.410 -47.2190  0.00  0.00     0.000 O
BRANCH 22 26
ATOM     23  C1  GU1 D   2      18.825   2.833 -45.6320  0.00  0.00     0.000 C
ATOM     24  C2  GU1 D   2      20.197   2.221 -45.8690  0.00  0.00     0.000 C
ATOM     25  C3  GU1 D   2      21.202   3.317 -46.0740  0.00  0.00     0.000 C
ATOM     26  C4  GU1 D   2      20.748   4.274 -47.1670  0.00  0.00     0.000 C
ATOM     27  C5  GU1 D   2      19.319   4.750 -46.8870  0.00  0.00     0.000 C
ATOM     28  O5  GU1 D   2      18.442   3.636 -46.7420  0.00  0.00     0.000 O
ATOM     29   O  GU1 D   2      20.623   1.427 -44.7690  0.00  0.00     0.000 O
ATOM     30   C  GU1 D   2      20.373   0.038 -44.9310  0.00  0.00     0.000 C
ATOM     31   C  GU1 D   2      23.422   2.640 -45.4390  0.00  0.00     0.000 C
ATOM     32   O  GU1 D   2      22.442   2.725 -46.4710  0.00  0.00     0.000 O
BRANCH 27 33
ATOM     33   C  GU1 D   2      18.797   5.605 -48.0170  0.00  0.00     0.000 C
ATOM     34   O  GU1 D   2      18.622   6.789 -47.8120  0.00  0.00     0.000 OA
ATOM     35   O  GU1 D   2      18.562   5.115 -49.1100  0.00  0.00     0.000 O
ENDBRANCH 27 33
BRANCH 23 36
ATOM     36  O4  GU6 D   3      17.650   1.998 -45.6520  0.00  0.00     0.000 O
BRANCH 36 40
ATOM     37  C1  GU6 D   3      13.900   0.469 -45.1100  0.00  0.00     0.000 C
ATOM     38  C2  GU6 D   3      14.550   0.982 -43.8310  0.00  0.00     0.000 C
ATOM     39  C3  GU6 D   3      15.792   1.761 -44.1730  0.00  0.00     0.000 C
ATOM     40  C4  GU6 D   3      16.270   1.708 -45.5590  0.00  0.00     0.000 C
ATOM     41  C5  GU6 D   3      16.062   0.265 -46.1280  0.00  0.00     0.000 C
ATOM     42  O5  GU6 D   3      14.826  -0.370 -45.7830  0.00  0.00     0.000 O
BRANCH 38 43
ATOM     43   O  GU6 D   3      13.649   1.800 -43.1090  0.00  0.00     0.000 O
ATOM     44   S  GU6 D   3      12.825   1.059 -42.0640  0.00  0.00     0.000 S
ATOM     45   O  GU6 D   3      11.686   0.413 -42.7380  0.00  0.00     0.000 OA
ATOM     46   O  GU6 D   3      13.674   0.029 -41.4390  0.00  0.00     0.000 O
ATOM     47   O  GU6 D   3      12.375   2.015 -41.0560  0.00  0.00     0.000 OA
ENDBRANCH 38 43
BRANCH 39 48
ATOM     48   O  GU6 D   3      16.341   2.691 -43.2590  0.00  0.00     0.000 O
ATOM     49   S  GU6 D   3      17.175   2.453 -42.0000  0.00  0.00     0.000 S
ATOM     50   O  GU6 D   3      18.359   1.649 -42.3230  0.00  0.00     0.000 OA
ATOM     51   O  GU6 D   3      17.553   3.812 -41.5900  0.00  0.00     0.000 OA
ATOM     52   O  GU6 D   3      16.343   1.751 -40.9990  0.00  0.00     0.000 O
ENDBRANCH 39 48
BRANCH 41 53
ATOM     53   C  GU6 D   3      16.976  -0.548 -47.0050  0.00  0.00     0.000 C
ATOM     54   O  GU6 D   3      16.006  -1.020 -47.9050  0.00  0.00     0.000 O
ATOM     55   S  GU6 D   3      16.384  -2.030 -48.9960  0.00  0.00     0.000 S
ATOM     56   O  GU6 D   3      16.758  -3.286 -48.3040  0.00  0.00     0.000 O
ATOM     57   O  GU6 D   3      15.215  -2.243 -49.8620  0.00  0.00     0.000 OA
ATOM     58   O  GU6 D   3      17.535  -1.467 -49.7370  0.00  0.00     0.000 OA
ENDBRANCH 41 53
BRANCH 37 59
ATOM     59  O4  Z9K D   4      13.267   1.297 -46.1080  0.00  0.00     0.000 O
BRANCH 59 63
ATOM     60  C1  Z9K D   4       9.987   2.302 -48.0250  0.00  0.00     0.000 C
ATOM     61  C2  Z9K D   4       9.716   0.801 -47.7310  0.00  0.00     0.000 C
ATOM     62  C3  Z9K D   4      10.955   0.448 -46.7990  0.00  0.00     0.000 C
ATOM     63  C4  Z9K D   4      12.394   0.937 -47.2170  0.00  0.00     0.000 C
ATOM     64  C5  Z9K D   4      12.449   2.193 -48.1000  0.00  0.00     0.000 C
ATOM     65  O5  Z9K D   4      11.293   2.951 -47.6560  0.00  0.00     0.000 O
ATOM     66   O  Z9K D   4      11.100  -0.963 -46.5570  0.00  0.00     0.000 O
ATOM     67   C  Z9K D   4      10.324  -1.455 -45.4770  0.00  0.00     0.000 C
BRANCH 61 68
ATOM     68   O  Z9K D   4       8.579   0.742 -46.9130  0.00  0.00     0.000 O
ATOM     69   O  Z9K D   4       8.723  -1.300 -48.4490  0.00  0.00     0.000 OA
ATOM     70   S  Z9K D   4       8.078  -0.039 -48.2400  0.00  0.00     0.000 S
ATOM     71   O  Z9K D   4       7.769   0.920 -49.2560  0.00  0.00     0.000 OA
ATOM     72   O  Z9K D   4       6.961  -0.177 -47.3630  0.00  0.00     0.000 OA
ENDBRANCH 61 68
BRANCH 64 73
ATOM     73   C  Z9K D   4      13.842   2.854 -48.0280  0.00  0.00     0.000 C
ATOM     74   O  Z9K D   4      14.042   3.888 -47.3260  0.00  0.00     0.000 O
ATOM     75   O  Z9K D   4      14.827   2.391 -48.6540  0.00  0.00     0.000 OA
ENDBRANCH 64 73
BRANCH 60 76
ATOM     76  O4  Z9L D   5       9.859   3.006 -49.2720  0.00  0.00     0.000 O
BRANCH 76 80
ATOM     77  C1  Z9L D   5       8.446   6.338 -50.9670  0.00  0.00     0.000 C
ATOM     78  C2  Z9L D   5      10.037   6.350 -51.1650  0.00  0.00     0.000 C
ATOM     79  C3  Z9L D   5      10.574   4.772 -50.8760  0.00  0.00     0.000 C
ATOM     80  C4  Z9L D   5       9.676   4.370 -49.5540  0.00  0.00     0.000 C
ATOM     81  C5  Z9L D   5       8.105   4.564 -49.2480  0.00  0.00     0.000 C
ATOM     82  O5  Z9L D   5       7.756   5.867 -49.7390  0.00  0.00     0.000 O
ATOM     83   C  Z9L D   5       6.414   5.622 -52.0860  0.00  0.00     0.000 C
ATOM     84   C  Z9L D   5       6.414   5.622 -52.0860  0.00  0.00     0.000 C
BRANCH 78 85
ATOM     85   O  Z9L D   5      10.306   6.688 -52.4880  0.00  0.00     0.000 O
ATOM     86   O  Z9L D   5      11.165   8.313 -53.0620  0.00  0.00     0.000 OA
ATOM     87   S  Z9L D   5      11.000   7.905 -51.7010  0.00  0.00     0.000 S
ATOM     88   O  Z9L D   5      12.332   7.611 -51.2340  0.00  0.00     0.000 OA
ATOM     89   O  Z9L D   5      10.125   8.867 -51.1250  0.00  0.00     0.000 OA
ENDBRANCH 78 85
BRANCH 79 90
ATOM     90   O  Z9L D   5      11.872   4.762 -50.3740  0.00  0.00     0.000 O
ATOM     91   S  Z9L D   5      12.085   3.880 -51.6830  0.00  0.00     0.000 S
ATOM     92   O  Z9L D   5      11.740   4.356 -52.9970  0.00  0.00     0.000 OA
ATOM     93   O  Z9L D   5      11.961   2.484 -51.3440  0.00  0.00     0.000 O
ATOM     94   O  Z9L D   5      13.441   4.255 -51.4400  0.00  0.00     0.000 OA
ENDBRANCH 79 90
BRANCH 81 95
ATOM     95   C  Z9L D   5       7.555   4.109 -47.7300  0.00  0.00     0.000 C
ATOM     96   S  Z9L D   5       6.261   4.530 -46.2760  0.00  0.00     0.000 S
ATOM     97   O  Z9L D   5       7.120   5.369 -47.2940  0.00  0.00     0.000 O
ATOM     98   O  Z9L D   5       7.176   4.000 -45.2980  0.00  0.00     0.000 OA
ATOM     99   O  Z9L D   5       5.238   3.720 -46.8480  0.00  0.00     0.000 OA
ATOM    100   O  Z9L D   5       5.863   5.852 -45.8590  0.00  0.00     0.000 O
ENDBRANCH 81 95
ENDBRANCH 76 80
ENDBRANCH 60 76
ENDBRANCH 59 63
ENDBRANCH 37 59
ENDBRANCH 36 40
ENDBRANCH 23 36
ENDBRANCH 22 26
ENDBRANCH 1 22
TORSDOF 19
ENDMDL
MODEL 72
REMARK VINA RESULT:      -5.4     33.787     39.934
ROOT
ATOM      1  C1  Z9H D   1      -6.723  35.799 -24.0660  0.00  0.00     0.000 C
ATOM      2  C2  Z9H D   1      -8.163  35.654 -24.6130  0.00  0.00     0.000 C
ATOM      3  C3  Z9H D   1      -8.927  35.745 -23.2570  0.00  0.00     0.000 C
ATOM      4  C4  Z9H D   1      -8.396  34.786 -22.1120  0.00  0.00     0.000 C
ATOM      5  C5  Z9H D   1      -6.865  34.643 -21.7450  0.00  0.00     0.000 C
ATOM      6  O5  Z9H D   1      -6.237  34.906 -23.0250  0.00  0.00     0.000 O
ATOM      7   O  Z9H D   1     -10.334  35.577 -23.4330  0.00  0.00     0.000 O
ATOM      8   C  Z9H D   1     -11.099  36.793 -23.4820  0.00  0.00     0.000 C
ATOM      9   O  Z9H D   1      -9.081  35.186 -20.9210  0.00  0.00     0.000 O
ATOM     10   C  Z9H D   1     -10.212  34.386 -20.5610  0.00  0.00     0.000 C
ENDROOT
BRANCH 2 11
ATOM     11   O  Z9H D   1      -8.366  36.897 -25.2320  0.00  0.00     0.000 O
ATOM     12   O  Z9H D   1      -8.598  37.130 -27.0900  0.00  0.00     0.000 OA
ATOM     13   S  Z9H D   1      -8.439  35.871 -26.4440  0.00  0.00     0.000 S
ATOM     14   O  Z9H D   1      -9.656  35.121 -26.3270  0.00  0.00     0.000 OA
ATOM     15   O  Z9H D   1      -7.142  35.310 -26.7460  0.00  0.00     0.000 O
ENDBRANCH 2 11
BRANCH 5 16
ATOM     16   C  Z9H D   1      -6.476  33.287 -20.8450  0.00  0.00     0.000 C
ATOM     17   S  Z9H D   1      -5.144  31.796 -20.6390  0.00  0.00     0.000 S
ATOM     18   O  Z9H D   1      -5.076  33.376 -20.9600  0.00  0.00     0.000 O
ATOM     19   O  Z9H D   1      -5.736  30.996 -21.6730  0.00  0.00     0.000 O
ATOM     20   O  Z9H D   1      -5.389  31.586 -19.2550  0.00  0.00     0.000 OA
ATOM     21   O  Z9H D   1      -3.728  31.938 -20.8160  0.00  0.00     0.000 OA
ENDBRANCH 5 16
BRANCH 1 22
ATOM     22  O4  GU1 D   2      -6.420  37.107 -23.4590  0.00  0.00     0.000 O
BRANCH 22 26
ATOM     23  C1  GU1 D   2      -3.571  40.042 -22.9760  0.00  0.00     0.000 C
ATOM     24  C2  GU1 D   2      -3.614  39.414 -24.3610  0.00  0.00     0.000 C
ATOM     25  C3  GU1 D   2      -4.903  38.663 -24.5260  0.00  0.00     0.000 C
ATOM     26  C4  GU1 D   2      -5.107  37.675 -23.3870  0.00  0.00     0.000 C
ATOM     27  C5  GU1 D   2      -4.941  38.386 -22.0410  0.00  0.00     0.000 C
ATOM     28  O5  GU1 D   2      -3.675  39.038 -21.9740  0.00  0.00     0.000 O
ATOM     29   O  GU1 D   2      -3.533  40.392 -25.3910  0.00  0.00     0.000 O
ATOM     30   C  GU1 D   2      -2.223  40.575 -25.9090  0.00  0.00     0.000 C
ATOM     31   C  GU1 D   2      -5.579  38.523 -26.8320  0.00  0.00     0.000 C
ATOM     32   O  GU1 D   2      -4.848  37.936 -25.7580  0.00  0.00     0.000 O
BRANCH 27 33
ATOM     33   C  GU1 D   2      -5.018  37.408 -20.8930  0.00  0.00     0.000 C
ATOM     34   O  GU1 D   2      -4.153  36.562 -20.7950  0.00  0.00     0.000 OA
ATOM     35   O  GU1 D   2      -5.930  37.472 -20.0830  0.00  0.00     0.000 O
ENDBRANCH 27 33
BRANCH 23 36
ATOM     36  O4  GU6 D   3      -2.342  40.608 -22.4790  0.00  0.00     0.000 O
BRANCH 36 40
ATOM     37  C1  GU6 D   3       0.235  43.388 -20.9540  0.00  0.00     0.000 C
ATOM     38  C2  GU6 D   3      -1.081  43.972 -21.4540  0.00  0.00     0.000 C
ATOM     39  C3  GU6 D   3      -2.053  42.857 -21.7370  0.00  0.00     0.000 C
ATOM     40  C4  GU6 D   3      -1.540  41.483 -21.7120  0.00  0.00     0.000 C
ATOM     41  C5  GU6 D   3      -0.102  41.451 -22.3270  0.00  0.00     0.000 C
ATOM     42  O5  GU6 D   3       0.760  42.533 -21.9570  0.00  0.00     0.000 O
BRANCH 38 43
ATOM     43   O  GU6 D   3      -1.627  44.858 -20.4960  0.00  0.00     0.000 O
ATOM     44   S  GU6 D   3      -1.167  46.303 -20.6400  0.00  0.00     0.000 S
ATOM     45   O  GU6 D   3       0.154  46.439 -20.0020  0.00  0.00     0.000 OA
ATOM     46   O  GU6 D   3      -1.052  46.620 -22.0760  0.00  0.00     0.000 O
ATOM     47   O  GU6 D   3      -2.154  47.176 -20.0130  0.00  0.00     0.000 OA
ENDBRANCH 38 43
BRANCH 39 48
ATOM     48   O  GU6 D   3      -3.445  43.104 -21.7930  0.00  0.00     0.000 O
ATOM     49   S  GU6 D   3      -4.267  43.855 -22.8400  0.00  0.00     0.000 S
ATOM     50   O  GU6 D   3      -4.032  43.285 -24.1710  0.00  0.00     0.000 OA
ATOM     51   O  GU6 D   3      -5.651  43.629 -22.4010  0.00  0.00     0.000 OA
ATOM     52   O  GU6 D   3      -3.875  45.282 -22.8240  0.00  0.00     0.000 O
ENDBRANCH 39 48
BRANCH 41 53
ATOM     53   C  GU6 D   3       0.512  40.430 -23.2460  0.00  0.00     0.000 C
ATOM     54   O  GU6 D   3       1.692  40.204 -22.5190  0.00  0.00     0.000 O
ATOM     55   S  GU6 D   3       2.790  39.290 -23.0810  0.00  0.00     0.000 S
ATOM     56   O  GU6 D   3       3.328  39.959 -24.2870  0.00  0.00     0.000 O
ATOM     57   O  GU6 D   3       3.837  39.135 -22.0610  0.00  0.00     0.000 OA
ATOM     58   O  GU6 D   3       2.151  38.000 -23.4280  0.00  0.00     0.000 OA
ENDBRANCH 41 53
BRANCH 37 59
ATOM     59  O4  Z9K D   4       0.418  42.725 -19.6850  0.00  0.00     0.000 O
BRANCH 59 63
ATOM     60  C1  Z9K D   4       1.876  45.257 -17.0560  0.00  0.00     0.000 C
ATOM     61  C2  Z9K D   4       3.159  44.861 -17.8370  0.00  0.00     0.000 C
ATOM     62  C3  Z9K D   4       2.540  43.984 -19.0100  0.00  0.00     0.000 C
ATOM     63  C4  Z9K D   4       1.444  42.905 -18.6660  0.00  0.00     0.000 C
ATOM     64  C5  Z9K D   4       0.611  43.169 -17.4030  0.00  0.00     0.000 C
ATOM     65  O5  Z9K D   4       0.547  44.619 -17.3560  0.00  0.00     0.000 O
ATOM     66   O  Z9K D   4       3.532  43.274 -19.7730  0.00  0.00     0.000 O
ATOM     67   C  Z9K D   4       4.111  44.027 -20.8270  0.00  0.00     0.000 C
BRANCH 61 68
ATOM     68   O  Z9K D   4       3.653  46.028 -18.4350  0.00  0.00     0.000 O
ATOM     69   O  Z9K D   4       5.556  44.447 -17.7810  0.00  0.00     0.000 OA
ATOM     70   S  Z9K D   4       4.853  45.640 -17.4180  0.00  0.00     0.000 S
ATOM     71   O  Z9K D   4       4.478  46.019 -16.0900  0.00  0.00     0.000 OA
ATOM     72   O  Z9K D   4       5.385  46.773 -18.1040  0.00  0.00     0.000 OA
ENDBRANCH 61 68
BRANCH 64 73
ATOM     73   C  Z9K D   4      -0.709  42.369 -17.4390  0.00  0.00     0.000 C
ATOM     74   O  Z9K D   4      -1.790  42.905 -17.8200  0.00  0.00     0.000 O
ATOM     75   O  Z9K D   4      -0.759  41.161 -17.1000  0.00  0.00     0.000 OA
ENDBRANCH 64 73
BRANCH 60 76
ATOM     76  O4  Z9L D   5       1.668  45.289 -15.6340  0.00  0.00     0.000 O
BRANCH 76 80
ATOM     77  C1  Z9L D   5       0.213  47.517 -12.6520  0.00  0.00     0.000 C
ATOM     78  C2  Z9L D   5      -0.636  46.157 -12.6800  0.00  0.00     0.000 C
ATOM     79  C3  Z9L D   5       0.250  45.050 -13.6020  0.00  0.00     0.000 C
ATOM     80  C4  Z9L D   5       0.754  46.006 -14.8450  0.00  0.00     0.000 C
ATOM     81  C5  Z9L D   5       1.402  47.482 -14.8440  0.00  0.00     0.000 C
ATOM     82  O5  Z9L D   5       0.679  48.240 -13.8630  0.00  0.00     0.000 O
ATOM     83   C  Z9L D   5       2.183  48.487 -11.6170  0.00  0.00     0.000 C
ATOM     84   C  Z9L D   5       2.183  48.487 -11.6170  0.00  0.00     0.000 C
BRANCH 78 85
ATOM     85   O  Z9L D   5      -0.738  45.685 -11.3740  0.00  0.00     0.000 O
ATOM     86   O  Z9L D   5      -2.360  45.644 -10.3360  0.00  0.00     0.000 OA
ATOM     87   S  Z9L D   5      -2.275  46.010 -11.7170  0.00  0.00     0.000 S
ATOM     88   O  Z9L D   5      -2.948  44.951 -12.4270  0.00  0.00     0.000 OA
ATOM     89   O  Z9L D   5      -2.636  47.385 -11.7630  0.00  0.00     0.000 OA
ENDBRANCH 78 85
BRANCH 79 90
ATOM     90   O  Z9L D   5      -0.586  44.138 -14.2410  0.00  0.00     0.000 O
ATOM     91   S  Z9L D   5       0.325  43.129 -13.4120  0.00  0.00     0.000 S
ATOM     92   O  Z9L D   5       0.467  43.216 -11.9820  0.00  0.00     0.000 OA
ATOM     93   O  Z9L D   5       1.417  42.682 -14.2400  0.00  0.00     0.000 O
ATOM     94   O  Z9L D   5      -0.783  42.269 -13.6750  0.00  0.00     0.000 OA
ENDBRANCH 79 90
BRANCH 81 95
ATOM     95   C  Z9L D   5       1.709  48.189 -16.3340  0.00  0.00     0.000 C
ATOM     96   S  Z9L D   5       2.317  49.849 -17.2520  0.00  0.00     0.000 S
ATOM     97   O  Z9L D   5       1.459  49.521 -15.9720  0.00  0.00     0.000 O
ATOM     98   O  Z9L D   5       1.499  49.526 -18.3930  0.00  0.00     0.000 OA
ATOM     99   O  Z9L D   5       3.688  49.470 -17.1920  0.00  0.00     0.000 OA
ATOM    100   O  Z9L D   5       2.013  51.198 -16.8410  0.00  0.00     0.000 O
ENDBRANCH 81 95
ENDBRANCH 76 80
ENDBRANCH 60 76
ENDBRANCH 59 63
ENDBRANCH 37 59
ENDBRANCH 36 40
ENDBRANCH 23 36
ENDBRANCH 22 26
ENDBRANCH 1 22
TORSDOF 19
ENDMDL
MODEL 73
REMARK VINA RESULT:      -5.4     36.717     43.335
ROOT
ATOM      1  C1  Z9H D   1      22.884   3.272 -48.8660  0.00  0.00     0.000 C
ATOM      2  C2  Z9H D   1      23.335   2.411 -47.6610  0.00  0.00     0.000 C
ATOM      3  C3  Z9H D   1      22.661   3.244 -46.5280  0.00  0.00     0.000 C
ATOM      4  C4  Z9H D   1      22.953   4.801 -46.5640  0.00  0.00     0.000 C
ATOM      5  C5  Z9H D   1      22.835   5.672 -47.8780  0.00  0.00     0.000 C
ATOM      6  O5  Z9H D   1      23.167   4.698 -48.8990  0.00  0.00     0.000 O
ATOM      7   O  Z9H D   1      22.959   2.713 -45.2360  0.00  0.00     0.000 O
ATOM      8   C  Z9H D   1      21.942   1.871 -44.6660  0.00  0.00     0.000 C
ATOM      9   O  Z9H D   1      22.079   5.383 -45.5910  0.00  0.00     0.000 O
ATOM     10   C  Z9H D   1      22.673   5.674 -44.3230  0.00  0.00     0.000 C
ENDROOT
BRANCH 2 11
ATOM     11   O  Z9H D   1      22.532   1.268 -47.8020  0.00  0.00     0.000 O
ATOM     12   O  Z9H D   1      23.199  -0.454 -48.1840  0.00  0.00     0.000 OA
ATOM     13   S  Z9H D   1      24.005   0.704 -47.9910  0.00  0.00     0.000 S
ATOM     14   O  Z9H D   1      24.670   0.743 -46.7200  0.00  0.00     0.000 OA
ATOM     15   O  Z9H D   1      24.583   1.130 -49.2450  0.00  0.00     0.000 O
ENDBRANCH 2 11
BRANCH 5 16
ATOM     16   C  Z9H D   1      23.599   7.160 -47.8130  0.00  0.00     0.000 C
ATOM     17   S  Z9H D   1      24.747   8.354 -46.6740  0.00  0.00     0.000 S
ATOM     18   O  Z9H D   1      24.696   6.778 -47.0200  0.00  0.00     0.000 O
ATOM     19   O  Z9H D   1      23.642   8.837 -45.8970  0.00  0.00     0.000 O
ATOM     20   O  Z9H D   1      25.310   9.076 -47.7620  0.00  0.00     0.000 OA
ATOM     21   O  Z9H D   1      25.826   7.898 -45.8470  0.00  0.00     0.000 OA
ENDBRANCH 5 16
BRANCH 1 22
ATOM     22  O4  GU1 D   2      21.430   3.282 -49.1090  0.00  0.00     0.000 O
BRANCH 22 26
ATOM     23  C1  GU1 D   2      18.474   3.239 -51.9780  0.00  0.00     0.000 C
ATOM     24  C2  GU1 D   2      19.674   2.356 -52.2830  0.00  0.00     0.000 C
ATOM     25  C3  GU1 D   2      20.477   2.157 -51.0300  0.00  0.00     0.000 C
ATOM     26  C4  GU1 D   2      20.832   3.493 -50.3930  0.00  0.00     0.000 C
ATOM     27  C5  GU1 D   2      19.571   4.345 -50.2260  0.00  0.00     0.000 C
ATOM     28  O5  GU1 D   2      18.903   4.499 -51.4750  0.00  0.00     0.000 O
ATOM     29   O  GU1 D   2      19.284   1.077 -52.7680  0.00  0.00     0.000 O
ATOM     30   C  GU1 D   2      19.299   0.970 -54.1850  0.00  0.00     0.000 C
ATOM     31   C  GU1 D   2      21.703   0.086 -51.0590  0.00  0.00     0.000 C
ATOM     32   O  GU1 D   2      21.688   1.476 -51.3720  0.00  0.00     0.000 O
BRANCH 27 33
ATOM     33   C  GU1 D   2      19.908   5.724 -49.7080  0.00  0.00     0.000 C
ATOM     34   O  GU1 D   2      20.599   6.446 -50.3960  0.00  0.00     0.000 OA
ATOM     35   O  GU1 D   2      19.489   6.099 -48.6240  0.00  0.00     0.000 O
ENDBRANCH 27 33
BRANCH 23 36
ATOM     36  O4  GU6 D   3      17.685   3.780 -53.0560  0.00  0.00     0.000 O
BRANCH 36 40
ATOM     37  C1  GU6 D   3      14.256   4.312 -55.2130  0.00  0.00     0.000 C
ATOM     38  C2  GU6 D   3      15.203   5.505 -55.2520  0.00  0.00     0.000 C
ATOM     39  C3  GU6 D   3      16.534   5.113 -54.6660  0.00  0.00     0.000 C
ATOM     40  C4  GU6 D   3      16.624   3.815 -53.9890  0.00  0.00     0.000 C
ATOM     41  C5  GU6 D   3      15.303   3.546 -53.1950  0.00  0.00     0.000 C
ATOM     42  O5  GU6 D   3      14.089   3.912 -53.8610  0.00  0.00     0.000 O
BRANCH 38 43
ATOM     43   O  GU6 D   3      15.375   5.960 -56.5810  0.00  0.00     0.000 O
ATOM     44   S  GU6 D   3      14.447   7.100 -56.9810  0.00  0.00     0.000 S
ATOM     45   O  GU6 D   3      13.140   6.531 -57.3530  0.00  0.00     0.000 OA
ATOM     46   O  GU6 D   3      14.280   7.998 -55.8240  0.00  0.00     0.000 O
ATOM     47   O  GU6 D   3      15.048   7.826 -58.0950  0.00  0.00     0.000 OA
ENDBRANCH 38 43
BRANCH 39 48
ATOM     48   O  GU6 D   3      17.703   5.855 -54.9580  0.00  0.00     0.000 O
ATOM     49   S  GU6 D   3      18.178   7.196 -54.4010  0.00  0.00     0.000 S
ATOM     50   O  GU6 D   3      18.242   7.142 -52.9360  0.00  0.00     0.000 OA
ATOM     51   O  GU6 D   3      19.517   7.344 -54.9870  0.00  0.00     0.000 OA
ATOM     52   O  GU6 D   3      17.234   8.254 -54.8280  0.00  0.00     0.000 O
ENDBRANCH 39 48
BRANCH 41 53
ATOM     53   C  GU6 D   3      15.125   2.940 -51.8290  0.00  0.00     0.000 C
ATOM     54   O  GU6 D   3      14.985   4.136 -51.1070  0.00  0.00     0.000 O
ATOM     55   S  GU6 D   3      14.881   4.113 -49.5760  0.00  0.00     0.000 S
ATOM     56   O  GU6 D   3      16.186   3.630 -49.0670  0.00  0.00     0.000 O
ATOM     57   O  GU6 D   3      14.612   5.479 -49.1040  0.00  0.00     0.000 OA
ATOM     58   O  GU6 D   3      13.792   3.175 -49.2240  0.00  0.00     0.000 OA
ENDBRANCH 41 53
BRANCH 37 59
ATOM     59  O4  Z9K D   4      14.402   3.112 -56.0010  0.00  0.00     0.000 O
BRANCH 59 63
ATOM     60  C1  Z9K D   4      14.081  -0.659 -57.0610  0.00  0.00     0.000 C
ATOM     61  C2  Z9K D   4      13.467  -0.694 -55.6340  0.00  0.00     0.000 C
ATOM     62  C3  Z9K D   4      13.430   0.857 -55.2840  0.00  0.00     0.000 C
ATOM     63  C4  Z9K D   4      14.695   1.745 -55.5930  0.00  0.00     0.000 C
ATOM     64  C5  Z9K D   4      15.605   1.251 -56.7270  0.00  0.00     0.000 C
ATOM     65  O5  Z9K D   4      14.671   0.602 -57.6300  0.00  0.00     0.000 O
ATOM     66   O  Z9K D   4      13.120   1.121 -53.9040  0.00  0.00     0.000 O
ATOM     67   C  Z9K D   4      11.733   1.162 -53.6110  0.00  0.00     0.000 C
BRANCH 61 68
ATOM     68   O  Z9K D   4      12.133  -1.099 -55.7700  0.00  0.00     0.000 O
ATOM     69   O  Z9K D   4      13.136  -1.941 -53.5720  0.00  0.00     0.000 OA
ATOM     70   S  Z9K D   4      12.764  -2.313 -54.9040  0.00  0.00     0.000 S
ATOM     71   O  Z9K D   4      13.515  -3.165 -55.7740  0.00  0.00     0.000 OA
ATOM     72   O  Z9K D   4      11.383  -2.667 -54.9670  0.00  0.00     0.000 OA
ENDBRANCH 61 68
BRANCH 64 73
ATOM     73   C  Z9K D   4      16.483   2.400 -57.2670  0.00  0.00     0.000 C
ATOM     74   O  Z9K D   4      16.089   3.133 -58.2200  0.00  0.00     0.000 O
ATOM     75   O  Z9K D   4      17.612   2.654 -56.7800  0.00  0.00     0.000 OA
ENDBRANCH 64 73
BRANCH 60 76
ATOM     76  O4  Z9L D   5      15.087  -1.519 -57.6230  0.00  0.00     0.000 O
BRANCH 76 80
ATOM     77  C1  Z9L D   5      16.074  -3.688 -60.8320  0.00  0.00     0.000 C
ATOM     78  C2  Z9L D   5      17.160  -2.515 -60.7050  0.00  0.00     0.000 C
ATOM     79  C3  Z9L D   5      17.027  -1.897 -59.1370  0.00  0.00     0.000 C
ATOM     80  C4  Z9L D   5      15.390  -1.845 -58.9550  0.00  0.00     0.000 C
ATOM     81  C5  Z9L D   5      14.256  -2.940 -59.2960  0.00  0.00     0.000 C
ATOM     82  O5  Z9L D   5      14.624  -3.523 -60.5550  0.00  0.00     0.000 O
ATOM     83   C  Z9L D   5      15.691  -5.983 -60.1400  0.00  0.00     0.000 C
ATOM     84   C  Z9L D   5      15.691  -5.983 -60.1400  0.00  0.00     0.000 C
BRANCH 78 85
ATOM     85   O  Z9L D   5      18.423  -3.076 -60.8690  0.00  0.00     0.000 O
ATOM     86   O  Z9L D   5      19.631  -2.681 -62.3160  0.00  0.00     0.000 OA
ATOM     87   S  Z9L D   5      18.387  -2.015 -62.0750  0.00  0.00     0.000 S
ATOM     88   O  Z9L D   5      18.750  -0.676 -61.6820  0.00  0.00     0.000 OA
ATOM     89   O  Z9L D   5      17.564  -2.347 -63.1860  0.00  0.00     0.000 OA
ENDBRANCH 78 85
BRANCH 79 90
ATOM     90   O  Z9L D   5      17.379  -0.551 -59.0900  0.00  0.00     0.000 O
ATOM     91   S  Z9L D   5      18.447  -1.141 -58.0670  0.00  0.00     0.000 S
ATOM     92   O  Z9L D   5      19.360  -2.194 -58.4270  0.00  0.00     0.000 OA
ATOM     93   O  Z9L D   5      17.931  -1.035 -56.7250  0.00  0.00     0.000 O
ATOM     94   O  Z9L D   5      19.087   0.097 -58.3720  0.00  0.00     0.000 OA
ENDBRANCH 79 90
BRANCH 81 95
ATOM     95   C  Z9L D   5      12.658  -2.491 -59.0590  0.00  0.00     0.000 C
ATOM     96   S  Z9L D   5      10.760  -3.039 -59.3160  0.00  0.00     0.000 S
ATOM     97   O  Z9L D   5      12.096  -3.195 -60.1340  0.00  0.00     0.000 O
ATOM     98   O  Z9L D   5      10.368  -1.656 -59.4210  0.00  0.00     0.000 OA
ATOM     99   O  Z9L D   5      10.712  -3.730 -58.0720  0.00  0.00     0.000 OA
ATOM    100   O  Z9L D   5      10.236  -3.749 -60.4560  0.00  0.00     0.000 O
ENDBRANCH 81 95
ENDBRANCH 76 80
ENDBRANCH 60 76
ENDBRANCH 59 63
ENDBRANCH 37 59
ENDBRANCH 36 40
ENDBRANCH 23 36
ENDBRANCH 22 26
ENDBRANCH 1 22
TORSDOF 19
ENDMDL
MODEL 74
REMARK VINA RESULT:      -5.4     30.785     36.408
ROOT
ATOM      1  C1  Z9H D   1      -4.869  38.577 -25.8550  0.00  0.00     0.000 C
ATOM      2  C2  Z9H D   1      -6.356  38.653 -26.2780  0.00  0.00     0.000 C
ATOM      3  C3  Z9H D   1      -6.985  38.791 -24.8580  0.00  0.00     0.000 C
ATOM      4  C4  Z9H D   1      -6.500  37.722 -23.7930  0.00  0.00     0.000 C
ATOM      5  C5  Z9H D   1      -4.979  37.357 -23.5660  0.00  0.00     0.000 C
ATOM      6  O5  Z9H D   1      -4.429  37.584 -24.8870  0.00  0.00     0.000 O
ATOM      7   O  Z9H D   1      -8.412  38.824 -24.9150  0.00  0.00     0.000 O
ATOM      8   C  Z9H D   1      -9.001  40.135 -24.8600  0.00  0.00     0.000 C
ATOM      9   O  Z9H D   1      -7.022  38.162 -22.5350  0.00  0.00     0.000 O
ATOM     10   C  Z9H D   1      -8.219  37.510 -22.1010  0.00  0.00     0.000 C
ENDROOT
BRANCH 2 11
ATOM     11   O  Z9H D   1      -6.434  39.937 -26.8390  0.00  0.00     0.000 O
ATOM     12   O  Z9H D   1      -6.773  40.277 -28.6640  0.00  0.00     0.000 OA
ATOM     13   S  Z9H D   1      -6.739  38.982 -28.0720  0.00  0.00     0.000 S
ATOM     14   O  Z9H D   1      -8.035  38.397 -27.8800  0.00  0.00     0.000 OA
ATOM     15   O  Z9H D   1      -5.558  38.266 -28.4960  0.00  0.00     0.000 O
ENDBRANCH 2 11
BRANCH 5 16
ATOM     16   C  Z9H D   1      -4.710  35.924 -22.7450  0.00  0.00     0.000 C
ATOM     17   S  Z9H D   1      -5.600  34.294 -21.9750  0.00  0.00     0.000 S
ATOM     18   O  Z9H D   1      -5.752  35.174 -23.3200  0.00  0.00     0.000 O
ATOM     19   O  Z9H D   1      -5.997  34.963 -20.7700  0.00  0.00     0.000 O
ATOM     20   O  Z9H D   1      -4.452  33.460 -22.0620  0.00  0.00     0.000 OA
ATOM     21   O  Z9H D   1      -6.694  33.598 -22.5880  0.00  0.00     0.000 OA
ENDBRANCH 5 16
BRANCH 1 22
ATOM     22  O4  GU1 D   2      -4.338  39.805 -25.2380  0.00  0.00     0.000 O
BRANCH 22 26
ATOM     23  C1  GU1 D   2      -1.089  42.323 -24.9690  0.00  0.00     0.000 C
ATOM     24  C2  GU1 D   2      -1.338  41.746 -26.3540  0.00  0.00     0.000 C
ATOM     25  C3  GU1 D   2      -2.726  41.178 -26.4130  0.00  0.00     0.000 C
ATOM     26  C4  GU1 D   2      -2.960  40.193 -25.2770  0.00  0.00     0.000 C
ATOM     27  C5  GU1 D   2      -2.581  40.837 -23.9400  0.00  0.00     0.000 C
ATOM     28  O5  GU1 D   2      -1.238  41.313 -23.9780  0.00  0.00     0.000 O
ATOM     29   O  GU1 D   2      -1.218  42.734 -27.3710  0.00  0.00     0.000 O
ATOM     30   C  GU1 D   2       0.054  42.757 -28.0030  0.00  0.00     0.000 C
ATOM     31   C  GU1 D   2      -3.616  41.194 -28.6500  0.00  0.00     0.000 C
ATOM     32   O  GU1 D   2      -2.878  40.485 -27.6570  0.00  0.00     0.000 O
BRANCH 27 33
ATOM     33   C  GU1 D   2      -2.688  39.844 -22.8060  0.00  0.00     0.000 C
ATOM     34   O  GU1 D   2      -3.522  40.038 -21.9460  0.00  0.00     0.000 OA
ATOM     35   O  GU1 D   2      -1.953  38.870 -22.7630  0.00  0.00     0.000 O
ENDBRANCH 27 33
BRANCH 23 36
ATOM     36  O4  GU6 D   3       0.244  42.707 -24.5770  0.00  0.00     0.000 O
BRANCH 36 40
ATOM     37  C1  GU6 D   3       4.092  44.079 -24.6570  0.00  0.00     0.000 C
ATOM     38  C2  GU6 D   3       3.736  43.310 -23.3910  0.00  0.00     0.000 C
ATOM     39  C3  GU6 D   3       2.408  42.623 -23.5740  0.00  0.00     0.000 C
ATOM     40  C4  GU6 D   3       1.621  42.968 -24.7630  0.00  0.00     0.000 C
ATOM     41  C5  GU6 D   3       1.765  44.497 -25.0600  0.00  0.00     0.000 C
ATOM     42  O5  GU6 D   3       3.079  45.043 -24.9010  0.00  0.00     0.000 O
BRANCH 38 43
ATOM     43   O  GU6 D   3       4.736  42.356 -23.0910  0.00  0.00     0.000 O
ATOM     44   S  GU6 D   3       5.930  42.916 -22.3280  0.00  0.00     0.000 S
ATOM     45   O  GU6 D   3       6.842  43.558 -23.2900  0.00  0.00     0.000 OA
ATOM     46   O  GU6 D   3       5.445  43.922 -21.3660  0.00  0.00     0.000 O
ATOM     47   O  GU6 D   3       6.589  41.823 -21.6190  0.00  0.00     0.000 OA
ENDBRANCH 38 43
BRANCH 39 48
ATOM     48   O  GU6 D   3       2.042  41.523 -22.7640  0.00  0.00     0.000 O
ATOM     49   S  GU6 D   3       1.425  41.498 -21.3650  0.00  0.00     0.000 S
ATOM     50   O  GU6 D   3       0.186  42.283 -21.3450  0.00  0.00     0.000 OA
ATOM     51   O  GU6 D   3       1.153  40.070 -21.1470  0.00  0.00     0.000 OA
ATOM     52   O  GU6 D   3       2.397  42.061 -20.4020  0.00  0.00     0.000 O
ENDBRANCH 39 48
BRANCH 41 53
ATOM     53   C  GU6 D   3       0.714  45.478 -25.5060  0.00  0.00     0.000 C
ATOM     54   O  GU6 D   3       0.367  45.975 -24.2390  0.00  0.00     0.000 O
ATOM     55   S  GU6 D   3      -0.789  46.972 -24.0840  0.00  0.00     0.000 S
ATOM     56   O  GU6 D   3      -2.029  46.249 -24.4500  0.00  0.00     0.000 O
ATOM     57   O  GU6 D   3      -0.840  47.416 -22.6830  0.00  0.00     0.000 OA
ATOM     58   O  GU6 D   3      -0.531  48.092 -25.0160  0.00  0.00     0.000 OA
ENDBRANCH 41 53
BRANCH 37 59
ATOM     59  O4  Z9K D   4       4.426  43.477 -25.9260  0.00  0.00     0.000 O
BRANCH 59 63
ATOM     60  C1  Z9K D   4       6.798  43.966 -29.0210  0.00  0.00     0.000 C
ATOM     61  C2  Z9K D   4       6.365  45.432 -28.7400  0.00  0.00     0.000 C
ATOM     62  C3  Z9K D   4       5.558  45.252 -27.3820  0.00  0.00     0.000 C
ATOM     63  C4  Z9K D   4       4.523  44.069 -27.2540  0.00  0.00     0.000 C
ATOM     64  C5  Z9K D   4       4.787  42.843 -28.1420  0.00  0.00     0.000 C
ATOM     65  O5  Z9K D   4       6.236  42.816 -28.2310  0.00  0.00     0.000 O
ATOM     66   O  Z9K D   4       4.824  46.428 -26.9960  0.00  0.00     0.000 O
ATOM     67   C  Z9K D   4       5.580  47.375 -26.2600  0.00  0.00     0.000 C
BRANCH 61 68
ATOM     68   O  Z9K D   4       7.524  46.149 -28.4160  0.00  0.00     0.000 O
ATOM     69   O  Z9K D   4       5.848  47.617 -29.6750  0.00  0.00     0.000 OA
ATOM     70   S  Z9K D   4       7.061  46.865 -29.7930  0.00  0.00     0.000 S
ATOM     71   O  Z9K D   4       7.422  46.029 -30.8970  0.00  0.00     0.000 OA
ATOM     72   O  Z9K D   4       8.188  47.649 -29.4030  0.00  0.00     0.000 OA
ENDBRANCH 61 68
BRANCH 64 73
ATOM     73   C  Z9K D   4       4.055  41.600 -27.5930  0.00  0.00     0.000 C
ATOM     74   O  Z9K D   4       2.855  41.353 -27.9110  0.00  0.00     0.000 O
ATOM     75   O  Z9K D   4       4.619  40.788 -26.8200  0.00  0.00     0.000 OA
ENDBRANCH 64 73
BRANCH 60 76
ATOM     76  O4  Z9L D   5       6.795  43.257 -30.2720  0.00  0.00     0.000 O
BRANCH 76 80
ATOM     77  C1  Z9L D   5       8.520  40.332 -32.3790  0.00  0.00     0.000 C
ATOM     78  C2  Z9L D   5       7.022  39.858 -32.0560  0.00  0.00     0.000 C
ATOM     79  C3  Z9L D   5       6.166  41.240 -31.5880  0.00  0.00     0.000 C
ATOM     80  C4  Z9L D   5       7.271  41.982 -30.6170  0.00  0.00     0.000 C
ATOM     81  C5  Z9L D   5       8.844  42.262 -30.8330  0.00  0.00     0.000 C
ATOM     82  O5  Z9L D   5       9.388  41.075 -31.4300  0.00  0.00     0.000 O
ATOM     83   C  Z9L D   5       9.802  41.498 -34.0780  0.00  0.00     0.000 C
ATOM     84   C  Z9L D   5       9.802  41.498 -34.0780  0.00  0.00     0.000 C
BRANCH 78 85
ATOM     85   O  Z9L D   5       6.467  39.353 -33.2290  0.00  0.00     0.000 O
ATOM     86   O  Z9L D   5       6.020  37.505 -33.5350  0.00  0.00     0.000 OA
ATOM     87   S  Z9L D   5       6.473  38.048 -32.2910  0.00  0.00     0.000 S
ATOM     88   O  Z9L D   5       5.335  37.961 -31.4090  0.00  0.00     0.000 OA
ATOM     89   O  Z9L D   5       7.738  37.443 -32.0560  0.00  0.00     0.000 OA
ENDBRANCH 78 85
BRANCH 79 90
ATOM     90   O  Z9L D   5       5.144  40.925 -30.6970  0.00  0.00     0.000 O
ATOM     91   S  Z9L D   5       4.300  41.688 -31.8120  0.00  0.00     0.000 S
ATOM     92   O  Z9L D   5       4.308  41.284 -33.1940  0.00  0.00     0.000 OA
ATOM     93   O  Z9L D   5       4.169  43.076 -31.4460  0.00  0.00     0.000 O
ATOM     94   O  Z9L D   5       3.240  40.981 -31.1710  0.00  0.00     0.000 OA
ENDBRANCH 79 90
BRANCH 81 95
ATOM     95   C  Z9L D   5       9.680  42.974 -29.5650  0.00  0.00     0.000 C
ATOM     96   S  Z9L D   5      11.247  44.105 -29.0820  0.00  0.00     0.000 S
ATOM     97   O  Z9L D   5      10.952  42.992 -30.1560  0.00  0.00     0.000 O
ATOM     98   O  Z9L D   5      11.345  43.438 -27.8090  0.00  0.00     0.000 OA
ATOM     99   O  Z9L D   5      10.513  45.317 -29.2290  0.00  0.00     0.000 OA
ATOM    100   O  Z9L D   5      12.541  44.067 -29.7170  0.00  0.00     0.000 O
ENDBRANCH 81 95
ENDBRANCH 76 80
ENDBRANCH 60 76
ENDBRANCH 59 63
ENDBRANCH 37 59
ENDBRANCH 36 40
ENDBRANCH 23 36
ENDBRANCH 22 26
ENDBRANCH 1 22
TORSDOF 19
ENDMDL
MODEL 75
REMARK VINA RESULT:      -5.3     41.580     46.834
ROOT
ATOM      1  C1  Z9H D   1       0.864   8.381 -49.4710  0.00  0.00     0.000 C
ATOM      2  C2  Z9H D   1       1.589   7.760 -48.2530  0.00  0.00     0.000 C
ATOM      3  C3  Z9H D   1       3.042   7.794 -48.8190  0.00  0.00     0.000 C
ATOM      4  C4  Z9H D   1       3.221   7.178 -50.2680  0.00  0.00     0.000 C
ATOM      5  C5  Z9H D   1       2.270   7.530 -51.4800  0.00  0.00     0.000 C
ATOM      6  O5  Z9H D   1       1.021   7.802 -50.7960  0.00  0.00     0.000 O
ATOM      7   O  Z9H D   1       3.974   7.206 -47.9100  0.00  0.00     0.000 O
ATOM      8   C  Z9H D   1       4.705   8.134 -47.0910  0.00  0.00     0.000 C
ATOM      9   O  Z9H D   1       4.556   7.508 -50.6680  0.00  0.00     0.000 O
ATOM     10   C  Z9H D   1       5.524   6.466 -50.5050  0.00  0.00     0.000 C
ENDROOT
BRANCH 2 11
ATOM     11   O  Z9H D   1       1.536   8.805 -47.3180  0.00  0.00     0.000 O
ATOM     12   O  Z9H D   1       0.617   8.709 -45.6730  0.00  0.00     0.000 OA
ATOM     13   S  Z9H D   1       0.719   7.641 -46.6090  0.00  0.00     0.000 S
ATOM     14   O  Z9H D   1       1.643   6.614 -46.2200  0.00  0.00     0.000 OA
ATOM     15   O  Z9H D   1      -0.554   7.413 -47.2540  0.00  0.00     0.000 O
ENDBRANCH 2 11
BRANCH 5 16
ATOM     16   C  Z9H D   1       2.343   6.466 -52.7700  0.00  0.00     0.000 C
ATOM     17   S  Z9H D   1       1.238   5.424 -54.0870  0.00  0.00     0.000 S
ATOM     18   O  Z9H D   1       1.189   6.905 -53.4460  0.00  0.00     0.000 O
ATOM     19   O  Z9H D   1       0.970   4.358 -53.1640  0.00  0.00     0.000 O
ATOM     20   O  Z9H D   1       2.248   5.355 -55.0850  0.00  0.00     0.000 OA
ATOM     21   O  Z9H D   1       0.041   5.908 -54.7090  0.00  0.00     0.000 OA
ENDBRANCH 5 16
BRANCH 1 22
ATOM     22  O4  GU1 D   2       1.212   9.785 -49.7490  0.00  0.00     0.000 O
BRANCH 22 26
ATOM     23  C1  GU1 D   2      -0.273  13.455 -50.8880  0.00  0.00     0.000 C
ATOM     24  C2  GU1 D   2      -1.226  12.609 -50.0560  0.00  0.00     0.000 C
ATOM     25  C3  GU1 D   2      -0.459  11.502 -49.3940  0.00  0.00     0.000 C
ATOM     26  C4  GU1 D   2       0.347  10.712 -50.4150  0.00  0.00     0.000 C
ATOM     27  C5  GU1 D   2       1.191  11.664 -51.2670  0.00  0.00     0.000 C
ATOM     28  O5  GU1 D   2       0.366  12.654 -51.8750  0.00  0.00     0.000 O
ATOM     29   O  GU1 D   2      -1.868  13.373 -49.0420  0.00  0.00     0.000 O
ATOM     30   C  GU1 D   2      -3.163  13.833 -49.4030  0.00  0.00     0.000 C
ATOM     31   C  GU1 D   2      -1.504  10.772 -47.3530  0.00  0.00     0.000 C
ATOM     32   O  GU1 D   2      -1.393  10.618 -48.7660  0.00  0.00     0.000 O
BRANCH 27 33
ATOM     33   C  GU1 D   2       1.909  10.921 -52.3690  0.00  0.00     0.000 C
ATOM     34   O  GU1 D   2       1.245  10.370 -53.2220  0.00  0.00     0.000 OA
ATOM     35   O  GU1 D   2       3.130  10.882 -52.3980  0.00  0.00     0.000 O
ENDBRANCH 27 33
BRANCH 23 36
ATOM     36  O4  GU6 D   3      -0.795  14.429 -51.8140  0.00  0.00     0.000 O
BRANCH 36 40
ATOM     37  C1  GU6 D   3      -0.316  17.850 -53.9950  0.00  0.00     0.000 C
ATOM     38  C2  GU6 D   3      -0.786  16.655 -54.8150  0.00  0.00     0.000 C
ATOM     39  C3  GU6 D   3      -1.190  15.536 -53.8900  0.00  0.00     0.000 C
ATOM     40  C4  GU6 D   3      -0.870  15.680 -52.4660  0.00  0.00     0.000 C
ATOM     41  C5  GU6 D   3       0.528  16.366 -52.3110  0.00  0.00     0.000 C
ATOM     42  O5  GU6 D   3       0.794  17.450 -53.2070  0.00  0.00     0.000 O
BRANCH 38 43
ATOM     43   O  GU6 D   3      -1.876  17.015 -55.6410  0.00  0.00     0.000 O
ATOM     44   S  GU6 D   3      -1.705  16.640 -57.1070  0.00  0.00     0.000 S
ATOM     45   O  GU6 D   3      -0.878  17.669 -57.7610  0.00  0.00     0.000 OA
ATOM     46   O  GU6 D   3      -1.017  15.338 -57.1830  0.00  0.00     0.000 O
ATOM     47   O  GU6 D   3      -3.024  16.545 -57.7250  0.00  0.00     0.000 OA
ENDBRANCH 38 43
BRANCH 39 48
ATOM     48   O  GU6 D   3      -2.046  14.501 -54.3330  0.00  0.00     0.000 O
ATOM     49   S  GU6 D   3      -3.556  14.336 -54.1620  0.00  0.00     0.000 S
ATOM     50   O  GU6 D   3      -4.255  15.517 -54.6830  0.00  0.00     0.000 OA
ATOM     51   O  GU6 D   3      -3.854  13.144 -54.9680  0.00  0.00     0.000 OA
ATOM     52   O  GU6 D   3      -3.860  14.160 -52.7250  0.00  0.00     0.000 O
ENDBRANCH 39 48
BRANCH 41 53
ATOM     53   C  GU6 D   3       1.633  16.055 -51.3370  0.00  0.00     0.000 C
ATOM     54   O  GU6 D   3       2.629  15.737 -52.2750  0.00  0.00     0.000 O
ATOM     55   S  GU6 D   3       3.996  15.217 -51.8110  0.00  0.00     0.000 S
ATOM     56   O  GU6 D   3       3.762  13.892 -51.1910  0.00  0.00     0.000 O
ATOM     57   O  GU6 D   3       4.873  15.093 -52.9840  0.00  0.00     0.000 OA
ATOM     58   O  GU6 D   3       4.520  16.183 -50.8200  0.00  0.00     0.000 OA
ENDBRANCH 41 53
BRANCH 37 59
ATOM     59  O4  Z9K D   4      -1.164  18.666 -53.1590  0.00  0.00     0.000 O
BRANCH 59 63
ATOM     60  C1  Z9K D   4       1.313  21.717 -53.0980  0.00  0.00     0.000 C
ATOM     61  C2  Z9K D   4       1.162  21.422 -51.5800  0.00  0.00     0.000 C
ATOM     62  C3  Z9K D   4       0.311  20.079 -51.6180  0.00  0.00     0.000 C
ATOM     63  C4  Z9K D   4      -0.932  19.984 -52.5830  0.00  0.00     0.000 C
ATOM     64  C5  Z9K D   4      -0.891  20.885 -53.8270  0.00  0.00     0.000 C
ATOM     65  O5  Z9K D   4       0.528  20.952 -54.1280  0.00  0.00     0.000 O
ATOM     66   O  Z9K D   4      -0.193  19.688 -50.3270  0.00  0.00     0.000 O
ATOM     67   C  Z9K D   4       0.717  18.927 -49.5500  0.00  0.00     0.000 C
BRANCH 61 68
ATOM     68   O  Z9K D   4       2.431  21.070 -51.1010  0.00  0.00     0.000 O
ATOM     69   O  Z9K D   4       1.074  22.298 -49.3120  0.00  0.00     0.000 OA
ATOM     70   S  Z9K D   4       2.126  22.429 -50.2750  0.00  0.00     0.000 S
ATOM     71   O  Z9K D   4       2.338  23.554 -51.1340  0.00  0.00     0.000 OA
ATOM     72   O  Z9K D   4       3.374  22.009 -49.7250  0.00  0.00     0.000 OA
ENDBRANCH 61 68
BRANCH 64 73
ATOM     73   C  Z9K D   4      -1.856  20.366 -54.9130  0.00  0.00     0.000 C
ATOM     74   O  Z9K D   4      -1.488  20.253 -56.1180  0.00  0.00     0.000 O
ATOM     75   O  Z9K D   4      -3.036  20.030 -54.6440  0.00  0.00     0.000 OA
ENDBRANCH 64 73
BRANCH 60 76
ATOM     76  O4  Z9L D   5       1.198  22.978 -53.7800  0.00  0.00     0.000 O
BRANCH 76 80
ATOM     77  C1  Z9L D   5       2.881  25.313 -56.5510  0.00  0.00     0.000 C
ATOM     78  C2  Z9L D   5       1.418  24.932 -57.0850  0.00  0.00     0.000 C
ATOM     79  C3  Z9L D   5       0.552  24.351 -55.7530  0.00  0.00     0.000 C
ATOM     80  C4  Z9L D   5       1.689  23.409 -55.0230  0.00  0.00     0.000 C
ATOM     81  C5  Z9L D   5       3.239  23.698 -54.6850  0.00  0.00     0.000 C
ATOM     82  O5  Z9L D   5       3.781  24.379 -55.8270  0.00  0.00     0.000 O
ATOM     83   C  Z9L D   5       4.033  27.023 -55.2690  0.00  0.00     0.000 C
ATOM     84   C  Z9L D   5       4.033  27.023 -55.2690  0.00  0.00     0.000 C
BRANCH 78 85
ATOM     85   O  Z9L D   5       0.812  26.094 -57.5510  0.00  0.00     0.000 O
ATOM     86   O  Z9L D   5       0.441  26.483 -59.4010  0.00  0.00     0.000 OA
ATOM     87   S  Z9L D   5       0.948  25.239 -58.9050  0.00  0.00     0.000 S
ATOM     88   O  Z9L D   5      -0.122  24.293 -59.1050  0.00  0.00     0.000 OA
ATOM     89   O  Z9L D   5       2.255  25.123 -59.4530  0.00  0.00     0.000 OA
ENDBRANCH 78 85
BRANCH 79 90
ATOM     90   O  Z9L D   5      -0.409  23.421 -56.1390  0.00  0.00     0.000 O
ATOM     91   S  Z9L D   5      -1.346  24.490 -55.4210  0.00  0.00     0.000 S
ATOM     92   O  Z9L D   5      -1.373  25.876 -55.8110  0.00  0.00     0.000 OA
ATOM     93   O  Z9L D   5      -1.548  24.103 -54.0470  0.00  0.00     0.000 O
ATOM     94   O  Z9L D   5      -2.332  23.813 -56.2000  0.00  0.00     0.000 OA
ENDBRANCH 79 90
BRANCH 81 95
ATOM     95   C  Z9L D   5       4.125  22.446 -54.0070  0.00  0.00     0.000 C
ATOM     96   S  Z9L D   5       5.407  20.969 -54.3870  0.00  0.00     0.000 S
ATOM     97   O  Z9L D   5       4.179  21.613 -55.1340  0.00  0.00     0.000 O
ATOM     98   O  Z9L D   5       4.871  20.211 -53.2860  0.00  0.00     0.000 OA
ATOM     99   O  Z9L D   5       6.543  21.812 -54.2230  0.00  0.00     0.000 OA
ATOM    100   O  Z9L D   5       5.403  20.132 -55.5610  0.00  0.00     0.000 O
ENDBRANCH 81 95
ENDBRANCH 76 80
ENDBRANCH 60 76
ENDBRANCH 59 63
ENDBRANCH 37 59
ENDBRANCH 36 40
ENDBRANCH 23 36
ENDBRANCH 22 26
ENDBRANCH 1 22
TORSDOF 19
ENDMDL
MODEL 76
REMARK VINA RESULT:      -5.3     30.081     36.147
ROOT
ATOM      1  C1  Z9H D   1      11.929  43.209 -34.0280  0.00  0.00     0.000 C
ATOM      2  C2  Z9H D   1      12.835  44.084 -34.9270  0.00  0.00     0.000 C
ATOM      3  C3  Z9H D   1      11.932  44.107 -36.1980  0.00  0.00     0.000 C
ATOM      4  C4  Z9H D   1      11.424  42.690 -36.6960  0.00  0.00     0.000 C
ATOM      5  C5  Z9H D   1      10.794  41.610 -35.7300  0.00  0.00     0.000 C
ATOM      6  O5  Z9H D   1      11.478  41.904 -34.4850  0.00  0.00     0.000 O
ATOM      7   O  Z9H D   1      12.552  44.818 -37.2710  0.00  0.00     0.000 O
ATOM      8   C  Z9H D   1      12.122  46.179 -37.4370  0.00  0.00     0.000 C
ATOM      9   O  Z9H D   1      10.457  42.961 -37.7160  0.00  0.00     0.000 O
ATOM     10   C  Z9H D   1      10.932  42.854 -39.0610  0.00  0.00     0.000 C
ENDROOT
BRANCH 2 11
ATOM     11   O  Z9H D   1      12.683  45.353 -34.3470  0.00  0.00     0.000 O
ATOM     12   O  Z9H D   1      14.039  46.253 -33.3940  0.00  0.00     0.000 OA
ATOM     13   S  Z9H D   1      14.195  44.986 -34.0270  0.00  0.00     0.000 S
ATOM     14   O  Z9H D   1      14.941  45.038 -35.2520  0.00  0.00     0.000 OA
ATOM     15   O  Z9H D   1      14.292  43.937 -33.0390  0.00  0.00     0.000 O
ENDBRANCH 2 11
BRANCH 5 16
ATOM     16   C  Z9H D   1      10.739  40.055 -36.3460  0.00  0.00     0.000 C
ATOM     17   S  Z9H D   1      10.891  38.107 -35.8720  0.00  0.00     0.000 S
ATOM     18   O  Z9H D   1      10.218  39.415 -35.2060  0.00  0.00     0.000 O
ATOM     19   O  Z9H D   1      12.326  38.115 -35.8980  0.00  0.00     0.000 O
ATOM     20   O  Z9H D   1      10.094  37.642 -36.9530  0.00  0.00     0.000 OA
ATOM     21   O  Z9H D   1      10.380  37.520 -34.6680  0.00  0.00     0.000 OA
ENDBRANCH 5 16
BRANCH 1 22
ATOM     22  O4  GU1 D   2      10.641  43.824 -33.6620  0.00  0.00     0.000 O
BRANCH 22 26
ATOM     23  C1  GU1 D   2       7.596  43.764 -30.8880  0.00  0.00     0.000 C
ATOM     24  C2  GU1 D   2       8.954  43.329 -30.3570  0.00  0.00     0.000 C
ATOM     25  C3  GU1 D   2      10.023  43.752 -31.3220  0.00  0.00     0.000 C
ATOM     26  C4  GU1 D   2       9.715  43.257 -32.7270  0.00  0.00     0.000 C
ATOM     27  C5  GU1 D   2       8.291  43.658 -33.1240  0.00  0.00     0.000 C
ATOM     28  O5  GU1 D   2       7.353  43.182 -32.1630  0.00  0.00     0.000 O
ATOM     29   O  GU1 D   2       9.241  43.910 -29.0910  0.00  0.00     0.000 O
ATOM     30   C  GU1 D   2       8.941  43.065 -27.9890  0.00  0.00     0.000 C
ATOM     31   C  GU1 D   2      12.143  44.086 -30.2320  0.00  0.00     0.000 C
ATOM     32   O  GU1 D   2      11.265  43.182 -30.8980  0.00  0.00     0.000 O
BRANCH 27 33
ATOM     33   C  GU1 D   2       7.914  43.077 -34.4660  0.00  0.00     0.000 C
ATOM     34   O  GU1 D   2       7.959  43.799 -35.4410  0.00  0.00     0.000 OA
ATOM     35   O  GU1 D   2       7.576  41.908 -34.5640  0.00  0.00     0.000 O
ENDBRANCH 27 33
BRANCH 23 36
ATOM     36  O4  GU6 D   3       6.389  43.268 -30.2750  0.00  0.00     0.000 O
BRANCH 36 40
ATOM     37  C1  GU6 D   3       3.221  42.433 -27.8350  0.00  0.00     0.000 C
ATOM     38  C2  GU6 D   3       4.114  41.233 -28.1200  0.00  0.00     0.000 C
ATOM     39  C3  GU6 D   3       5.382  41.695 -28.7900  0.00  0.00     0.000 C
ATOM     40  C4  GU6 D   3       5.446  43.090 -29.2380  0.00  0.00     0.000 C
ATOM     41  C5  GU6 D   3       4.053  43.523 -29.8030  0.00  0.00     0.000 C
ATOM     42  O5  GU6 D   3       2.912  43.070 -29.0650  0.00  0.00     0.000 O
BRANCH 38 43
ATOM     43   O  GU6 D   3       4.424  40.547 -26.9230  0.00  0.00     0.000 O
ATOM     44   S  GU6 D   3       3.449  39.432 -26.5660  0.00  0.00     0.000 S
ATOM     45   O  GU6 D   3       2.273  40.029 -25.9120  0.00  0.00     0.000 OA
ATOM     46   O  GU6 D   3       3.029  38.759 -27.8090  0.00  0.00     0.000 O
ATOM     47   O  GU6 D   3       4.122  38.482 -25.6860  0.00  0.00     0.000 OA
ENDBRANCH 38 43
BRANCH 39 48
ATOM     48   O  GU6 D   3       6.545  40.890 -28.7790  0.00  0.00     0.000 O
ATOM     49   S  GU6 D   3       6.965  39.760 -29.7180  0.00  0.00     0.000 S
ATOM     50   O  GU6 D   3       6.969  40.233 -31.1070  0.00  0.00     0.000 OA
ATOM     51   O  GU6 D   3       8.325  39.437 -29.2640  0.00  0.00     0.000 OA
ATOM     52   O  GU6 D   3       6.017  38.634 -29.5690  0.00  0.00     0.000 O
ENDBRANCH 39 48
BRANCH 41 53
ATOM     53   C  GU6 D   3       3.740  44.364 -31.0110  0.00  0.00     0.000 C
ATOM     54   O  GU6 D   3       2.806  45.223 -30.4080  0.00  0.00     0.000 O
ATOM     55   S  GU6 D   3       2.048  46.260 -31.2470  0.00  0.00     0.000 S
ATOM     56   O  GU6 D   3       1.174  45.503 -32.1740  0.00  0.00     0.000 O
ATOM     57   O  GU6 D   3       1.245  47.097 -30.3440  0.00  0.00     0.000 OA
ATOM     58   O  GU6 D   3       3.057  47.047 -31.9900  0.00  0.00     0.000 OA
ENDBRANCH 41 53
BRANCH 37 59
ATOM     59  O4  Z9K D   4       3.509  43.471 -26.8740  0.00  0.00     0.000 O
BRANCH 59 63
ATOM     60  C1  Z9K D   4       0.752  43.593 -24.0760  0.00  0.00     0.000 C
ATOM     61  C2  Z9K D   4       0.035  44.335 -25.2370  0.00  0.00     0.000 C
ATOM     62  C3  Z9K D   4       1.077  44.122 -26.4200  0.00  0.00     0.000 C
ATOM     63  C4  Z9K D   4       2.611  44.356 -26.1430  0.00  0.00     0.000 C
ATOM     64  C5  Z9K D   4       3.071  44.164 -24.6900  0.00  0.00     0.000 C
ATOM     65  O5  Z9K D   4       2.177  43.128 -24.2030  0.00  0.00     0.000 O
ATOM     66   O  Z9K D   4       0.786  44.916 -27.5840  0.00  0.00     0.000 O
ATOM     67   C  Z9K D   4      -0.142  44.326 -28.4790  0.00  0.00     0.000 C
BRANCH 61 68
ATOM     68   O  Z9K D   4      -1.098  43.580 -25.5700  0.00  0.00     0.000 O
ATOM     69   O  Z9K D   4      -1.531  46.084 -25.8750  0.00  0.00     0.000 OA
ATOM     70   S  Z9K D   4      -1.759  44.955 -25.0250  0.00  0.00     0.000 S
ATOM     71   O  Z9K D   4      -1.709  44.961 -23.5950  0.00  0.00     0.000 OA
ATOM     72   O  Z9K D   4      -2.901  44.214 -25.4570  0.00  0.00     0.000 OA
ENDBRANCH 61 68
BRANCH 64 73
ATOM     73   C  Z9K D   4       4.594  43.920 -24.6240  0.00  0.00     0.000 C
ATOM     74   O  Z9K D   4       5.064  42.770 -24.3870  0.00  0.00     0.000 O
ATOM     75   O  Z9K D   4       5.420  44.847 -24.8090  0.00  0.00     0.000 OA
ENDBRANCH 64 73
BRANCH 60 76
ATOM     76  O4  Z9L D   5       0.888  44.000 -22.7030  0.00  0.00     0.000 O
BRANCH 76 80
ATOM     77  C1  Z9L D   5       0.638  42.582 -18.9750  0.00  0.00     0.000 C
ATOM     78  C2  Z9L D   5       2.086  43.255 -19.1260  0.00  0.00     0.000 C
ATOM     79  C3  Z9L D   5       2.024  44.237 -20.5010  0.00  0.00     0.000 C
ATOM     80  C4  Z9L D   5       1.196  43.268 -21.5450  0.00  0.00     0.000 C
ATOM     81  C5  Z9L D   5      -0.145  42.397 -21.3360  0.00  0.00     0.000 C
ATOM     82  O5  Z9L D   5      -0.036  41.793 -20.0380  0.00  0.00     0.000 O
ATOM     83   C  Z9L D   5      -1.626  43.120 -18.2840  0.00  0.00     0.000 C
ATOM     84   C  Z9L D   5      -1.626  43.120 -18.2840  0.00  0.00     0.000 C
BRANCH 78 85
ATOM     85   O  Z9L D   5       2.311  44.051 -18.0060  0.00  0.00     0.000 O
ATOM     86   O  Z9L D   5       3.592  43.672 -16.6180  0.00  0.00     0.000 OA
ATOM     87   S  Z9L D   5       3.445  42.925 -17.8310  0.00  0.00     0.000 S
ATOM     88   O  Z9L D   5       4.648  43.190 -18.5810  0.00  0.00     0.000 OA
ATOM     89   O  Z9L D   5       3.000  41.636 -17.4250  0.00  0.00     0.000 OA
ENDBRANCH 78 85
BRANCH 79 90
ATOM     90   O  Z9L D   5       3.273  44.338 -21.1090  0.00  0.00     0.000 O
ATOM     91   S  Z9L D   5       2.976  45.882 -20.8500  0.00  0.00     0.000 S
ATOM     92   O  Z9L D   5       2.681  46.400 -19.5410  0.00  0.00     0.000 OA
ATOM     93   O  Z9L D   5       2.375  46.456 -22.0280  0.00  0.00     0.000 O
ATOM     94   O  Z9L D   5       4.391  45.949 -21.0230  0.00  0.00     0.000 OA
ENDBRANCH 79 90
BRANCH 81 95
ATOM     95   C  Z9L D   5      -0.651  41.444 -22.6200  0.00  0.00     0.000 C
ATOM     96   S  Z9L D   5      -0.585  39.621 -23.4170  0.00  0.00     0.000 S
ATOM     97   O  Z9L D   5       0.420  40.539 -22.6260  0.00  0.00     0.000 O
ATOM     98   O  Z9L D   5      -0.712  40.185 -24.7370  0.00  0.00     0.000 OA
ATOM     99   O  Z9L D   5      -1.725  39.178 -22.6880  0.00  0.00     0.000 OA
ATOM    100   O  Z9L D   5       0.556  38.738 -23.4070  0.00  0.00     0.000 O
ENDBRANCH 81 95
ENDBRANCH 76 80
ENDBRANCH 60 76
ENDBRANCH 59 63
ENDBRANCH 37 59
ENDBRANCH 36 40
ENDBRANCH 23 36
ENDBRANCH 22 26
ENDBRANCH 1 22
TORSDOF 19
ENDMDL
MODEL 77
REMARK VINA RESULT:      -5.3     35.453     42.301
ROOT
ATOM      1  C1  Z9H D   1      24.290   2.926 -48.4420  0.00  0.00     0.000 C
ATOM      2  C2  Z9H D   1      25.493   2.411 -47.6170  0.00  0.00     0.000 C
ATOM      3  C3  Z9H D   1      25.089   3.011 -46.2360  0.00  0.00     0.000 C
ATOM      4  C4  Z9H D   1      24.716   4.552 -46.2480  0.00  0.00     0.000 C
ATOM      5  C5  Z9H D   1      23.738   5.196 -47.3090  0.00  0.00     0.000 C
ATOM      6  O5  Z9H D   1      23.962   4.343 -48.4600  0.00  0.00     0.000 O
ATOM      7   O  Z9H D   1      26.076   2.747 -45.2370  0.00  0.00     0.000 O
ATOM      8   C  Z9H D   1      25.798   1.630 -44.3770  0.00  0.00     0.000 C
ATOM      9   O  Z9H D   1      24.177   4.831 -44.9520  0.00  0.00     0.000 O
ATOM     10   C  Z9H D   1      25.083   5.434 -44.0230  0.00  0.00     0.000 C
ENDROOT
BRANCH 2 11
ATOM     11   O  Z9H D   1      25.212   1.039 -47.5150  0.00  0.00     0.000 O
ATOM     12   O  Z9H D   1      26.275  -0.320 -48.2780  0.00  0.00     0.000 OA
ATOM     13   S  Z9H D   1      26.574   1.072 -48.3320  0.00  0.00     0.000 S
ATOM     14   O  Z9H D   1      27.625   1.474 -47.4410  0.00  0.00     0.000 OA
ATOM     15   O  Z9H D   1      26.381   1.577 -49.6720  0.00  0.00     0.000 O
ENDBRANCH 2 11
BRANCH 5 16
ATOM     16   C  Z9H D   1      23.824   6.863 -47.4310  0.00  0.00     0.000 C
ATOM     17   S  Z9H D   1      24.953   8.472 -47.0130  0.00  0.00     0.000 S
ATOM     18   O  Z9H D   1      25.221   6.975 -47.5550  0.00  0.00     0.000 O
ATOM     19   O  Z9H D   1      24.508   8.549 -45.6510  0.00  0.00     0.000 O
ATOM     20   O  Z9H D   1      24.423   9.283 -48.0530  0.00  0.00     0.000 OA
ATOM     21   O  Z9H D   1      26.383   8.511 -47.1130  0.00  0.00     0.000 OA
ENDBRANCH 5 16
BRANCH 1 22
ATOM     22  O4  GU1 D   2      22.987   2.354 -48.0590  0.00  0.00     0.000 O
BRANCH 22 26
ATOM     23  C1  GU1 D   2      19.366   0.997 -49.4790  0.00  0.00     0.000 C
ATOM     24  C2  GU1 D   2      20.548   0.751 -50.4040  0.00  0.00     0.000 C
ATOM     25  C3  GU1 D   2      21.825   0.929 -49.6350  0.00  0.00     0.000 C
ATOM     26  C4  GU1 D   2      21.854   2.278 -48.9330  0.00  0.00     0.000 C
ATOM     27  C5  GU1 D   2      20.574   2.470 -48.1140  0.00  0.00     0.000 C
ATOM     28  O5  GU1 D   2      19.425   2.313 -48.9410  0.00  0.00     0.000 O
ATOM     29   O  GU1 D   2      20.535  -0.565 -50.9450  0.00  0.00     0.000 O
ATOM     30   C  GU1 D   2      19.963  -0.646 -52.2430  0.00  0.00     0.000 C
ATOM     31   C  GU1 D   2      23.628  -0.367 -50.5640  0.00  0.00     0.000 C
ATOM     32   O  GU1 D   2      22.919   0.869 -50.5570  0.00  0.00     0.000 O
BRANCH 27 33
ATOM     33   C  GU1 D   2      20.519   3.850 -47.5020  0.00  0.00     0.000 C
ATOM     34   O  GU1 D   2      20.414   4.806 -48.2420  0.00  0.00     0.000 OA
ATOM     35   O  GU1 D   2      20.574   3.995 -46.2900  0.00  0.00     0.000 O
ENDBRANCH 27 33
BRANCH 23 36
ATOM     36  O4  GU6 D   3      18.038   1.130 -50.0260  0.00  0.00     0.000 O
BRANCH 36 40
ATOM     37  C1  GU6 D   3      14.710   0.591 -52.3340  0.00  0.00     0.000 C
ATOM     38  C2  GU6 D   3      14.648   1.821 -51.4370  0.00  0.00     0.000 C
ATOM     39  C3  GU6 D   3      16.008   2.081 -50.8420  0.00  0.00     0.000 C
ATOM     40  C4  GU6 D   3      17.038   1.051 -51.0210  0.00  0.00     0.000 C
ATOM     41  C5  GU6 D   3      16.385  -0.366 -50.9090  0.00  0.00     0.000 C
ATOM     42  O5  GU6 D   3      15.114  -0.521 -51.5500  0.00  0.00     0.000 O
BRANCH 38 43
ATOM     43   O  GU6 D   3      14.219   2.951 -52.1720  0.00  0.00     0.000 O
ATOM     44   S  GU6 D   3      12.736   3.267 -52.0310  0.00  0.00     0.000 S
ATOM     45   O  GU6 D   3      11.982   2.394 -52.9480  0.00  0.00     0.000 OA
ATOM     46   O  GU6 D   3      12.325   2.990 -50.6430  0.00  0.00     0.000 O
ATOM     47   O  GU6 D   3      12.523   4.676 -52.3440  0.00  0.00     0.000 OA
ENDBRANCH 38 43
BRANCH 39 48
ATOM     48   O  GU6 D   3      16.348   3.358 -50.3370  0.00  0.00     0.000 O
ATOM     49   S  GU6 D   3      16.031   3.993 -48.9840  0.00  0.00     0.000 S
ATOM     50   O  GU6 D   3      16.505   3.129 -47.8960  0.00  0.00     0.000 OA
ATOM     51   O  GU6 D   3      16.782   5.255 -49.0250  0.00  0.00     0.000 OA
ATOM     52   O  GU6 D   3      14.568   4.187 -48.8750  0.00  0.00     0.000 O
ENDBRANCH 39 48
BRANCH 41 53
ATOM     53   C  GU6 D   3      16.914  -1.601 -50.2320  0.00  0.00     0.000 C
ATOM     54   O  GU6 D   3      17.269  -2.315 -51.3880  0.00  0.00     0.000 O
ATOM     55   S  GU6 D   3      17.783  -3.758 -51.2850  0.00  0.00     0.000 S
ATOM     56   O  GU6 D   3      16.656  -4.578 -50.7850  0.00  0.00     0.000 O
ATOM     57   O  GU6 D   3      18.198  -4.204 -52.6230  0.00  0.00     0.000 OA
ATOM     58   O  GU6 D   3      18.908  -3.755 -50.3230  0.00  0.00     0.000 OA
ENDBRANCH 41 53
BRANCH 37 59
ATOM     59  O4  Z9K D   4      15.422   0.514 -53.5870  0.00  0.00     0.000 O
BRANCH 59 63
ATOM     60  C1  Z9K D   4      12.894   1.906 -56.2550  0.00  0.00     0.000 C
ATOM     61  C2  Z9K D   4      12.529   0.396 -56.2540  0.00  0.00     0.000 C
ATOM     62  C3  Z9K D   4      13.422  -0.129 -55.0470  0.00  0.00     0.000 C
ATOM     63  C4  Z9K D   4      14.925   0.335 -54.9450  0.00  0.00     0.000 C
ATOM     64  C5  Z9K D   4      15.261   1.683 -55.5990  0.00  0.00     0.000 C
ATOM     65  O5  Z9K D   4      14.033   2.439 -55.4290  0.00  0.00     0.000 O
ATOM     66   O  Z9K D   4      13.471  -1.564 -54.9580  0.00  0.00     0.000 O
ATOM     67   C  Z9K D   4      12.396  -2.143 -54.2350  0.00  0.00     0.000 C
BRANCH 61 68
ATOM     68   O  Z9K D   4      11.197   0.295 -55.8310  0.00  0.00     0.000 O
ATOM     69   O  Z9K D   4      11.805  -1.601 -57.4380  0.00  0.00     0.000 OA
ATOM     70   S  Z9K D   4      11.126  -0.346 -57.3170  0.00  0.00     0.000 S
ATOM     71   O  Z9K D   4      11.144   0.711 -58.2820  0.00  0.00     0.000 OA
ATOM     72   O  Z9K D   4       9.794  -0.531 -56.8390  0.00  0.00     0.000 OA
ENDBRANCH 61 68
BRANCH 64 73
ATOM     73   C  Z9K D   4      16.572   2.260 -55.0260  0.00  0.00     0.000 C
ATOM     74   O  Z9K D   4      16.573   3.307 -54.3150  0.00  0.00     0.000 O
ATOM     75   O  Z9K D   4      17.683   1.713 -55.2350  0.00  0.00     0.000 OA
ENDBRANCH 64 73
BRANCH 60 76
ATOM     76  O4  Z9L D   5      13.161   2.761 -57.3800  0.00  0.00     0.000 O
BRANCH 76 80
ATOM     77  C1  Z9L D   5      12.478   6.320 -59.0650  0.00  0.00     0.000 C
ATOM     78  C2  Z9L D   5      13.999   6.326 -58.5550  0.00  0.00     0.000 C
ATOM     79  C3  Z9L D   5      14.422   4.712 -58.2730  0.00  0.00     0.000 C
ATOM     80  C4  Z9L D   5      13.061   4.154 -57.5310  0.00  0.00     0.000 C
ATOM     81  C5  Z9L D   5      11.504   4.337 -57.9080  0.00  0.00     0.000 C
ATOM     82  O5  Z9L D   5      11.348   5.701 -58.3270  0.00  0.00     0.000 O
ATOM     83   C  Z9L D   5      11.152   5.804 -61.0320  0.00  0.00     0.000 C
ATOM     84   C  Z9L D   5      11.152   5.804 -61.0320  0.00  0.00     0.000 C
BRANCH 78 85
ATOM     85   O  Z9L D   5      14.795   6.834 -59.5770  0.00  0.00     0.000 O
ATOM     86   O  Z9L D   5      15.794   8.478 -59.4880  0.00  0.00     0.000 OA
ATOM     87   S  Z9L D   5      15.077   7.889 -58.3990  0.00  0.00     0.000 S
ATOM     88   O  Z9L D   5      16.093   7.464 -57.4680  0.00  0.00     0.000 OA
ATOM     89   O  Z9L D   5      14.028   8.804 -58.1030  0.00  0.00     0.000 OA
ENDBRANCH 78 85
BRANCH 79 90
ATOM     90   O  Z9L D   5      15.380   4.608 -57.2680  0.00  0.00     0.000 O
ATOM     91   S  Z9L D   5      16.203   3.995 -58.4860  0.00  0.00     0.000 S
ATOM     92   O  Z9L D   5      16.411   4.714 -59.7150  0.00  0.00     0.000 OA
ATOM     93   O  Z9L D   5      16.065   2.560 -58.4810  0.00  0.00     0.000 O
ATOM     94   O  Z9L D   5      17.289   4.317 -57.6180  0.00  0.00     0.000 OA
ENDBRANCH 79 90
BRANCH 81 95
ATOM     95   C  Z9L D   5      10.375   3.691 -56.8490  0.00  0.00     0.000 C
ATOM     96   S  Z9L D   5       9.247   4.063 -55.2500  0.00  0.00     0.000 S
ATOM     97   O  Z9L D   5      10.691   4.473 -55.7280  0.00  0.00     0.000 O
ATOM     98   O  Z9L D   5       9.315   2.674 -54.8710  0.00  0.00     0.000 OA
ATOM     99   O  Z9L D   5       8.170   4.565 -56.0330  0.00  0.00     0.000 OA
ATOM    100   O  Z9L D   5       9.634   4.864 -54.1150  0.00  0.00     0.000 O
ENDBRANCH 81 95
ENDBRANCH 76 80
ENDBRANCH 60 76
ENDBRANCH 59 63
ENDBRANCH 37 59
ENDBRANCH 36 40
ENDBRANCH 23 36
ENDBRANCH 22 26
ENDBRANCH 1 22
TORSDOF 19
ENDMDL
MODEL 78
REMARK VINA RESULT:      -5.3     30.103     35.064
ROOT
ATOM      1  C1  Z9H D   1       6.621  44.330 -24.1930  0.00  0.00     0.000 C
ATOM      2  C2  Z9H D   1       5.758  44.071 -22.9350  0.00  0.00     0.000 C
ATOM      3  C3  Z9H D   1       4.576  45.028 -23.2760  0.00  0.00     0.000 C
ATOM      4  C4  Z9H D   1       4.991  46.503 -23.6820  0.00  0.00     0.000 C
ATOM      5  C5  Z9H D   1       6.130  46.822 -24.7300  0.00  0.00     0.000 C
ATOM      6  O5  Z9H D   1       7.011  45.685 -24.5520  0.00  0.00     0.000 O
ATOM      7   O  Z9H D   1       3.603  45.056 -22.2300  0.00  0.00     0.000 O
ATOM      8   C  Z9H D   1       2.452  44.220 -22.4360  0.00  0.00     0.000 C
ATOM      9   O  Z9H D   1       3.793  47.128 -24.1550  0.00  0.00     0.000 O
ATOM     10   C  Z9H D   1       3.122  47.970 -23.2130  0.00  0.00     0.000 C
ENDROOT
BRANCH 2 11
ATOM     11   O  Z9H D   1       5.266  42.779 -23.1800  0.00  0.00     0.000 O
ATOM     12   O  Z9H D   1       5.650  41.277 -22.1060  0.00  0.00     0.000 OA
ATOM     13   S  Z9H D   1       6.104  42.601 -21.8420  0.00  0.00     0.000 S
ATOM     14   O  Z9H D   1       5.398  43.255 -20.7780  0.00  0.00     0.000 OA
ATOM     15   O  Z9H D   1       7.524  42.704 -22.0850  0.00  0.00     0.000 O
ENDBRANCH 2 11
BRANCH 5 16
ATOM     16   C  Z9H D   1       6.713  48.390 -24.6880  0.00  0.00     0.000 C
ATOM     17   S  Z9H D   1       7.723  49.782 -25.7290  0.00  0.00     0.000 S
ATOM     18   O  Z9H D   1       6.595  48.676 -26.0610  0.00  0.00     0.000 O
ATOM     19   O  Z9H D   1       9.007  49.247 -25.3810  0.00  0.00     0.000 O
ATOM     20   O  Z9H D   1       7.137  50.896 -25.0680  0.00  0.00     0.000 OA
ATOM     21   O  Z9H D   1       7.595  49.995 -27.1410  0.00  0.00     0.000 OA
ENDBRANCH 5 16
BRANCH 1 22
ATOM     22  O4  GU1 D   2       6.020  43.880 -25.4600  0.00  0.00     0.000 O
BRANCH 22 26
ATOM     23  C1  GU1 D   2       7.588  41.870 -28.6960  0.00  0.00     0.000 C
ATOM     24  C2  GU1 D   2       8.620  42.446 -27.7390  0.00  0.00     0.000 C
ATOM     25  C3  GU1 D   2       7.953  42.801 -26.4430  0.00  0.00     0.000 C
ATOM     26  C4  GU1 D   2       6.751  43.704 -26.6800  0.00  0.00     0.000 C
ATOM     27  C5  GU1 D   2       5.828  43.083 -27.7330  0.00  0.00     0.000 C
ATOM     28  O5  GU1 D   2       6.550  42.815 -28.9320  0.00  0.00     0.000 O
ATOM     29   O  GU1 D   2       9.664  41.519 -27.4620  0.00  0.00     0.000 O
ATOM     30   C  GU1 D   2      10.825  41.706 -28.2590  0.00  0.00     0.000 C
ATOM     31   C  GU1 D   2       9.482  42.722 -24.5860  0.00  0.00     0.000 C
ATOM     32   O  GU1 D   2       8.897  43.501 -25.6260  0.00  0.00     0.000 O
BRANCH 27 33
ATOM     33   C  GU1 D   2       4.689  44.013 -28.0770  0.00  0.00     0.000 C
ATOM     34   O  GU1 D   2       3.553  43.634 -27.8750  0.00  0.00     0.000 OA
ATOM     35   O  GU1 D   2       4.909  45.119 -28.5440  0.00  0.00     0.000 O
ENDBRANCH 27 33
BRANCH 23 36
ATOM     36  O4  GU6 D   3       7.920  41.678 -30.0860  0.00  0.00     0.000 O
BRANCH 36 40
ATOM     37  C1  GU6 D   3       8.465  42.326 -34.0830  0.00  0.00     0.000 C
ATOM     38  C2  GU6 D   3       8.598  40.866 -33.6690  0.00  0.00     0.000 C
ATOM     39  C3  GU6 D   3       8.117  40.697 -32.2520  0.00  0.00     0.000 C
ATOM     40  C4  GU6 D   3       7.839  41.911 -31.4770  0.00  0.00     0.000 C
ATOM     41  C5  GU6 D   3       8.900  43.007 -31.8240  0.00  0.00     0.000 C
ATOM     42  O5  GU6 D   3       9.254  43.118 -33.2080  0.00  0.00     0.000 O
BRANCH 38 43
ATOM     43   O  GU6 D   3       7.851  40.034 -34.5350  0.00  0.00     0.000 O
ATOM     44   S  GU6 D   3       8.696  39.108 -35.4010  0.00  0.00     0.000 S
ATOM     45   O  GU6 D   3       9.182  39.869 -36.5650  0.00  0.00     0.000 OA
ATOM     46   O  GU6 D   3       9.845  38.639 -34.6070  0.00  0.00     0.000 O
ATOM     47   O  GU6 D   3       7.876  37.972 -35.8140  0.00  0.00     0.000 OA
ENDBRANCH 38 43
BRANCH 39 48
ATOM     48   O  GU6 D   3       7.726  39.428 -31.7640  0.00  0.00     0.000 O
ATOM     49   S  GU6 D   3       6.329  38.830 -31.5940  0.00  0.00     0.000 S
ATOM     50   O  GU6 D   3       5.602  38.875 -32.8670  0.00  0.00     0.000 OA
ATOM     51   O  GU6 D   3       6.607  37.446 -31.1890  0.00  0.00     0.000 OA
ATOM     52   O  GU6 D   3       5.599  39.604 -30.5660  0.00  0.00     0.000 O
ENDBRANCH 39 48
BRANCH 41 53
ATOM     53   C  GU6 D   3       9.595  43.977 -30.9070  0.00  0.00     0.000 C
ATOM     54   O  GU6 D   3      10.745  44.185 -31.6850  0.00  0.00     0.000 O
ATOM     55   S  GU6 D   3      11.900  45.043 -31.1520  0.00  0.00     0.000 S
ATOM     56   O  GU6 D   3      12.473  44.318 -29.9940  0.00  0.00     0.000 O
ATOM     57   O  GU6 D   3      12.902  45.193 -32.2180  0.00  0.00     0.000 OA
ATOM     58   O  GU6 D   3      11.326  46.342 -30.7360  0.00  0.00     0.000 OA
ENDBRANCH 41 53
BRANCH 37 59
ATOM     59  O4  Z9K D   4       7.216  43.021 -34.2820  0.00  0.00     0.000 O
BRANCH 59 63
ATOM     60  C1  Z9K D   4       7.779  44.521 -37.8700  0.00  0.00     0.000 C
ATOM     61  C2  Z9K D   4       8.153  45.734 -36.9750  0.00  0.00     0.000 C
ATOM     62  C3  Z9K D   4       8.103  45.070 -35.5310  0.00  0.00     0.000 C
ATOM     63  C4  Z9K D   4       6.887  44.139 -35.1560  0.00  0.00     0.000 C
ATOM     64  C5  Z9K D   4       6.183  43.443 -36.3310  0.00  0.00     0.000 C
ATOM     65  O5  Z9K D   4       7.264  43.238 -37.2780  0.00  0.00     0.000 O
ATOM     66   O  Z9K D   4       8.178  46.029 -34.4610  0.00  0.00     0.000 O
ATOM     67   C  Z9K D   4       9.498  46.396 -34.0950  0.00  0.00     0.000 C
BRANCH 61 68
ATOM     68   O  Z9K D   4       9.500  46.030 -37.2250  0.00  0.00     0.000 O
ATOM     69   O  Z9K D   4       8.167  48.152 -36.7040  0.00  0.00     0.000 OA
ATOM     70   S  Z9K D   4       8.760  47.372 -37.7490  0.00  0.00     0.000 S
ATOM     71   O  Z9K D   4       8.179  47.113 -39.0310  0.00  0.00     0.000 OA
ATOM     72   O  Z9K D   4      10.140  47.699 -37.9100  0.00  0.00     0.000 OA
ENDBRANCH 61 68
BRANCH 64 73
ATOM     73   C  Z9K D   4       5.382  42.217 -35.8420  0.00  0.00     0.000 C
ATOM     74   O  Z9K D   4       4.486  42.331 -34.9560  0.00  0.00     0.000 O
ATOM     75   O  Z9K D   4       5.583  41.068 -36.3060  0.00  0.00     0.000 OA
ENDBRANCH 64 73
BRANCH 60 76
ATOM     76  O4  Z9L D   5       6.896  44.485 -39.0040  0.00  0.00     0.000 O
BRANCH 76 80
ATOM     77  C1  Z9L D   5       6.487  42.976 -42.6820  0.00  0.00     0.000 C
ATOM     78  C2  Z9L D   5       5.240  42.454 -41.8190  0.00  0.00     0.000 C
ATOM     79  C3  Z9L D   5       5.157  43.434 -40.4430  0.00  0.00     0.000 C
ATOM     80  C4  Z9L D   5       6.750  43.546 -40.0380  0.00  0.00     0.000 C
ATOM     81  C5  Z9L D   5       8.050  43.845 -40.9440  0.00  0.00     0.000 C
ATOM     82  O5  Z9L D   5       7.872  43.106 -42.1620  0.00  0.00     0.000 O
ATOM     83   C  Z9L D   5       7.131  44.799 -44.1490  0.00  0.00     0.000 C
ATOM     84   C  Z9L D   5       7.131  44.799 -44.1490  0.00  0.00     0.000 C
BRANCH 78 85
ATOM     85   O  Z9L D   5       4.086  42.631 -42.5760  0.00  0.00     0.000 O
ATOM     86   O  Z9L D   5       3.000  41.209 -43.2880  0.00  0.00     0.000 OA
ATOM     87   S  Z9L D   5       4.113  41.033 -42.4050  0.00  0.00     0.000 S
ATOM     88   O  Z9L D   5       3.539  40.572 -41.1660  0.00  0.00     0.000 OA
ATOM     89   O  Z9L D   5       5.087  40.331 -43.1670  0.00  0.00     0.000 OA
ENDBRANCH 78 85
BRANCH 79 90
ATOM     90   O  Z9L D   5       4.617  42.745 -39.3610  0.00  0.00     0.000 O
ATOM     91   S  Z9L D   5       3.602  43.971 -39.4310  0.00  0.00     0.000 S
ATOM     92   O  Z9L D   5       2.863  44.292 -40.6230  0.00  0.00     0.000 OA
ATOM     93   O  Z9L D   5       4.042  45.007 -38.5300  0.00  0.00     0.000 O
ATOM     94   O  Z9L D   5       2.807  43.062 -38.6720  0.00  0.00     0.000 OA
ENDBRANCH 79 90
BRANCH 81 95
ATOM     95   C  Z9L D   5       9.546  43.788 -40.1860  0.00  0.00     0.000 C
ATOM     96   S  Z9L D   5      11.223  42.734 -39.9760  0.00  0.00     0.000 S
ATOM     97   O  Z9L D   5       9.696  42.394 -40.1560  0.00  0.00     0.000 O
ATOM     98   O  Z9L D   5      11.380  43.238 -38.6350  0.00  0.00     0.000 OA
ATOM     99   O  Z9L D   5      11.851  43.370 -41.0840  0.00  0.00     0.000 OA
ATOM    100   O  Z9L D   5      11.314  41.296 -39.9350  0.00  0.00     0.000 O
ENDBRANCH 81 95
ENDBRANCH 76 80
ENDBRANCH 60 76
ENDBRANCH 59 63
ENDBRANCH 37 59
ENDBRANCH 36 40
ENDBRANCH 23 36
ENDBRANCH 22 26
ENDBRANCH 1 22
TORSDOF 19
ENDMDL
MODEL 79
REMARK VINA RESULT:      -5.3     38.195     43.960
ROOT
ATOM      1  C1  Z9H D   1       1.844   9.237 -49.2300  0.00  0.00     0.000 C
ATOM      2  C2  Z9H D   1       2.431  10.579 -49.7290  0.00  0.00     0.000 C
ATOM      3  C3  Z9H D   1       1.156  11.128 -50.4400  0.00  0.00     0.000 C
ATOM      4  C4  Z9H D   1       0.455  10.125 -51.4480  0.00  0.00     0.000 C
ATOM      5  C5  Z9H D   1       0.144   8.618 -51.0910  0.00  0.00     0.000 C
ATOM      6  O5  Z9H D   1       1.215   8.315 -50.1630  0.00  0.00     0.000 O
ATOM      7   O  Z9H D   1       1.407  12.381 -51.0800  0.00  0.00     0.000 O
ATOM      8   C  Z9H D   1       1.000  13.543 -50.3380  0.00  0.00     0.000 C
ATOM      9   O  Z9H D   1      -0.786  10.740 -51.8080  0.00  0.00     0.000 O
ATOM     10   C  Z9H D   1      -0.794  11.428 -53.0620  0.00  0.00     0.000 C
ENDROOT
BRANCH 2 11
ATOM     11   O  Z9H D   1       2.531  11.315 -48.5390  0.00  0.00     0.000 O
ATOM     12   O  Z9H D   1       4.163  11.800 -47.7270  0.00  0.00     0.000 OA
ATOM     13   S  Z9H D   1       4.047  11.095 -48.9590  0.00  0.00     0.000 S
ATOM     14   O  Z9H D   1       4.316  11.901 -50.1160  0.00  0.00     0.000 OA
ATOM     15   O  Z9H D   1       4.453   9.719 -48.7920  0.00  0.00     0.000 O
ENDBRANCH 2 11
BRANCH 5 16
ATOM     16   C  Z9H D   1      -0.176   7.630 -52.4040  0.00  0.00     0.000 C
ATOM     17   S  Z9H D   1       0.053   5.774 -53.1400  0.00  0.00     0.000 S
ATOM     18   O  Z9H D   1      -0.306   6.416 -51.7030  0.00  0.00     0.000 O
ATOM     19   O  Z9H D   1       1.394   6.015 -53.5900  0.00  0.00     0.000 O
ATOM     20   O  Z9H D   1      -1.079   5.829 -53.9980  0.00  0.00     0.000 OA
ATOM     21   O  Z9H D   1      -0.044   4.572 -52.3640  0.00  0.00     0.000 OA
ENDBRANCH 5 16
BRANCH 1 22
ATOM     22  O4  GU1 D   2       0.778   9.365 -48.2200  0.00  0.00     0.000 O
BRANCH 22 26
ATOM     23  C1  GU1 D   2      -0.784   7.690 -44.7960  0.00  0.00     0.000 C
ATOM     24  C2  GU1 D   2       0.710   7.479 -44.9870  0.00  0.00     0.000 C
ATOM     25  C3  GU1 D   2       1.218   8.433 -46.0290  0.00  0.00     0.000 C
ATOM     26  C4  GU1 D   2       0.404   8.324 -47.3100  0.00  0.00     0.000 C
ATOM     27  C5  GU1 D   2      -1.090   8.447 -46.9940  0.00  0.00     0.000 C
ATOM     28  O5  GU1 D   2      -1.475   7.478 -46.0220  0.00  0.00     0.000 O
ATOM     29   O  GU1 D   2       1.437   7.704 -43.7860  0.00  0.00     0.000 O
ATOM     30   C  GU1 D   2       1.726   6.519 -43.0580  0.00  0.00     0.000 C
ATOM     31   C  GU1 D   2       3.547   8.955 -45.7180  0.00  0.00     0.000 C
ATOM     32   O  GU1 D   2       2.579   8.100 -46.3210  0.00  0.00     0.000 O
BRANCH 27 33
ATOM     33   C  GU1 D   2      -1.929   8.222 -48.2290  0.00  0.00     0.000 C
ATOM     34   O  GU1 D   2      -2.508   9.172 -48.7150  0.00  0.00     0.000 OA
ATOM     35   O  GU1 D   2      -2.017   7.110 -48.7260  0.00  0.00     0.000 O
ENDBRANCH 27 33
BRANCH 23 36
ATOM     36  O4  GU6 D   3      -1.556   6.740 -44.0360  0.00  0.00     0.000 O
BRANCH 36 40
ATOM     37  C1  GU6 D   3      -3.446   5.188 -40.7620  0.00  0.00     0.000 C
ATOM     38  C2  GU6 D   3      -3.895   4.577 -42.0840  0.00  0.00     0.000 C
ATOM     39  C3  GU6 D   3      -2.962   5.010 -43.1840  0.00  0.00     0.000 C
ATOM     40  C4  GU6 D   3      -1.983   6.058 -42.8740  0.00  0.00     0.000 C
ATOM     41  C5  GU6 D   3      -2.637   7.121 -41.9300  0.00  0.00     0.000 C
ATOM     42  O5  GU6 D   3      -3.470   6.602 -40.8870  0.00  0.00     0.000 O
BRANCH 38 43
ATOM     43   O  GU6 D   3      -3.917   3.165 -41.9970  0.00  0.00     0.000 O
ATOM     44   S  GU6 D   3      -5.294   2.544 -42.1870  0.00  0.00     0.000 S
ATOM     45   O  GU6 D   3      -6.025   2.626 -40.9100  0.00  0.00     0.000 OA
ATOM     46   O  GU6 D   3      -6.019   3.311 -43.2160  0.00  0.00     0.000 O
ATOM     47   O  GU6 D   3      -5.131   1.159 -42.6170  0.00  0.00     0.000 OA
ENDBRANCH 38 43
BRANCH 39 48
ATOM     48   O  GU6 D   3      -2.873   4.278 -44.3910  0.00  0.00     0.000 O
ATOM     49   S  GU6 D   3      -1.817   3.276 -44.8550  0.00  0.00     0.000 S
ATOM     50   O  GU6 D   3      -1.673   2.200 -43.8670  0.00  0.00     0.000 OA
ATOM     51   O  GU6 D   3      -2.372   2.767 -46.1170  0.00  0.00     0.000 OA
ATOM     52   O  GU6 D   3      -0.528   3.981 -45.0270  0.00  0.00     0.000 O
ENDBRANCH 39 48
BRANCH 41 53
ATOM     53   C  GU6 D   3      -2.502   8.620 -41.9540  0.00  0.00     0.000 C
ATOM     54   O  GU6 D   3      -3.545   8.891 -42.8550  0.00  0.00     0.000 O
ATOM     55   S  GU6 D   3      -3.796  10.322 -43.3470  0.00  0.00     0.000 S
ATOM     56   O  GU6 D   3      -2.618  10.708 -44.1580  0.00  0.00     0.000 O
ATOM     57   O  GU6 D   3      -5.016  10.329 -44.1660  0.00  0.00     0.000 OA
ATOM     58   O  GU6 D   3      -3.922  11.182 -42.1490  0.00  0.00     0.000 OA
ENDBRANCH 41 53
BRANCH 37 59
ATOM     59  O4  Z9K D   4      -2.236   4.839 -40.0570  0.00  0.00     0.000 O
BRANCH 59 63
ATOM     60  C1  Z9K D   4      -1.145   4.910 -36.2820  0.00  0.00     0.000 C
ATOM     61  C2  Z9K D   4      -1.732   6.339 -36.4520  0.00  0.00     0.000 C
ATOM     62  C3  Z9K D   4      -2.337   6.243 -37.9200  0.00  0.00     0.000 C
ATOM     63  C4  Z9K D   4      -1.474   5.587 -39.0650  0.00  0.00     0.000 C
ATOM     64  C5  Z9K D   4      -0.425   4.560 -38.6140  0.00  0.00     0.000 C
ATOM     65  O5  Z9K D   4      -1.041   3.961 -37.4440  0.00  0.00     0.000 O
ATOM     66   O  Z9K D   4      -2.747   7.516 -38.4500  0.00  0.00     0.000 O
ATOM     67   C  Z9K D   4      -4.060   7.908 -38.0830  0.00  0.00     0.000 C
BRANCH 61 68
ATOM     68   O  Z9K D   4      -2.825   6.441 -35.5820  0.00  0.00     0.000 O
ATOM     69   O  Z9K D   4      -1.691   8.711 -35.9140  0.00  0.00     0.000 OA
ATOM     70   S  Z9K D   4      -1.843   7.600 -35.0220  0.00  0.00     0.000 S
ATOM     71   O  Z9K D   4      -0.797   6.995 -34.2560  0.00  0.00     0.000 OA
ATOM     72   O  Z9K D   4      -3.001   7.758 -34.2040  0.00  0.00     0.000 OA
ENDBRANCH 61 68
BRANCH 64 73
ATOM     73   C  Z9K D   4      -0.014   3.644 -39.7860  0.00  0.00     0.000 C
ATOM     74   O  Z9K D   4       0.675   4.085 -40.7520  0.00  0.00     0.000 O
ATOM     75   O  Z9K D   4      -0.339   2.432 -39.8240  0.00  0.00     0.000 OA
ENDBRANCH 64 73
BRANCH 60 76
ATOM     76  O4  Z9L D   5       0.115   4.524 -35.7070  0.00  0.00     0.000 O
BRANCH 76 80
ATOM     77  C1  Z9L D   5       1.912   2.042 -33.1420  0.00  0.00     0.000 C
ATOM     78  C2  Z9L D   5       2.421   1.648 -34.6110  0.00  0.00     0.000 C
ATOM     79  C3  Z9L D   5       2.043   2.951 -35.6210  0.00  0.00     0.000 C
ATOM     80  C4  Z9L D   5       0.528   3.330 -35.0940  0.00  0.00     0.000 C
ATOM     81  C5  Z9L D   5      -0.055   3.504 -33.6000  0.00  0.00     0.000 C
ATOM     82  O5  Z9L D   5       0.521   2.450 -32.8160  0.00  0.00     0.000 O
ATOM     83   C  Z9L D   5       2.503   3.456 -31.2590  0.00  0.00     0.000 C
ATOM     84   C  Z9L D   5       2.503   3.456 -31.2590  0.00  0.00     0.000 C
BRANCH 78 85
ATOM     85   O  Z9L D   5       3.803   1.495 -34.5620  0.00  0.00     0.000 O
ATOM     86   O  Z9L D   5       4.738  -0.179 -34.7450  0.00  0.00     0.000 OA
ATOM     87   S  Z9L D   5       3.329   0.001 -34.9190  0.00  0.00     0.000 S
ATOM     88   O  Z9L D   5       3.095  -0.214 -36.3260  0.00  0.00     0.000 OA
ATOM     89   O  Z9L D   5       2.724  -0.740 -33.8660  0.00  0.00     0.000 OA
ENDBRANCH 78 85
BRANCH 79 90
ATOM     90   O  Z9L D   5       1.811   2.529 -36.9270  0.00  0.00     0.000 O
ATOM     91   S  Z9L D   5       3.025   3.529 -37.1810  0.00  0.00     0.000 S
ATOM     92   O  Z9L D   5       4.290   3.390 -36.5090  0.00  0.00     0.000 OA
ATOM     93   O  Z9L D   5       2.508   4.829 -37.5270  0.00  0.00     0.000 O
ATOM     94   O  Z9L D   5       3.101   2.770 -38.3870  0.00  0.00     0.000 OA
ENDBRANCH 79 90
BRANCH 81 95
ATOM     95   C  Z9L D   5      -1.697   3.808 -33.4470  0.00  0.00     0.000 C
ATOM     96   S  Z9L D   5      -3.440   3.059 -32.8390  0.00  0.00     0.000 S
ATOM     97   O  Z9L D   5      -2.150   2.484 -33.5350  0.00  0.00     0.000 O
ATOM     98   O  Z9L D   5      -4.131   3.843 -33.8310  0.00  0.00     0.000 OA
ATOM     99   O  Z9L D   5      -3.266   3.534 -31.5080  0.00  0.00     0.000 OA
ATOM    100   O  Z9L D   5      -3.858   1.685 -32.9730  0.00  0.00     0.000 O
ENDBRANCH 81 95
ENDBRANCH 76 80
ENDBRANCH 60 76
ENDBRANCH 59 63
ENDBRANCH 37 59
ENDBRANCH 36 40
ENDBRANCH 23 36
ENDBRANCH 22 26
ENDBRANCH 1 22
TORSDOF 19
ENDMDL
MODEL 80
REMARK VINA RESULT:      -5.3     29.746     36.189
ROOT
ATOM      1  C1  Z9H D   1       9.773  43.684 -34.2910  0.00  0.00     0.000 C
ATOM      2  C2  Z9H D   1       9.484  44.264 -35.6960  0.00  0.00     0.000 C
ATOM      3  C3  Z9H D   1       8.633  43.083 -36.2540  0.00  0.00     0.000 C
ATOM      4  C4  Z9H D   1       9.277  41.644 -36.0900  0.00  0.00     0.000 C
ATOM      5  C5  Z9H D   1       9.907  41.130 -34.7350  0.00  0.00     0.000 C
ATOM      6  O5  Z9H D   1      10.377  42.369 -34.1470  0.00  0.00     0.000 O
ATOM      7   O  Z9H D   1       8.252  43.304 -37.6130  0.00  0.00     0.000 O
ATOM      8   C  Z9H D   1       6.923  43.819 -37.8050  0.00  0.00     0.000 C
ATOM      9   O  Z9H D   1       8.253  40.715 -36.4600  0.00  0.00     0.000 O
ATOM     10   C  Z9H D   1       8.340  40.198 -37.7910  0.00  0.00     0.000 C
ENDROOT
BRANCH 2 11
ATOM     11   O  Z9H D   1       8.558  45.279 -35.4090  0.00  0.00     0.000 O
ATOM     12   O  Z9H D   1       8.888  47.119 -35.6620  0.00  0.00     0.000 OA
ATOM     13   S  Z9H D   1       9.801  46.077 -35.9940  0.00  0.00     0.000 S
ATOM     14   O  Z9H D   1       9.887  45.808 -37.4010  0.00  0.00     0.000 OA
ATOM     15   O  Z9H D   1      10.917  46.073 -35.0770  0.00  0.00     0.000 O
ENDBRANCH 2 11
BRANCH 5 16
ATOM     16   C  Z9H D   1      10.912  39.799 -34.8800  0.00  0.00     0.000 C
ATOM     17   S  Z9H D   1      11.727  38.508 -36.1870  0.00  0.00     0.000 S
ATOM     18   O  Z9H D   1      11.441  40.097 -36.1500  0.00  0.00     0.000 O
ATOM     19   O  Z9H D   1      10.553  37.686 -36.2540  0.00  0.00     0.000 O
ATOM     20   O  Z9H D   1      12.854  38.193 -35.3810  0.00  0.00     0.000 OA
ATOM     21   O  Z9H D   1      12.207  38.864 -37.4910  0.00  0.00     0.000 OA
ENDBRANCH 5 16
BRANCH 1 22
ATOM     22  O4  GU1 D   2       8.587  43.529 -33.4300  0.00  0.00     0.000 O
BRANCH 22 26
ATOM     23  C1  GU1 D   2       7.137  43.847 -29.5870  0.00  0.00     0.000 C
ATOM     24  C2  GU1 D   2       8.153  44.910 -29.9770  0.00  0.00     0.000 C
ATOM     25  C3  GU1 D   2       8.309  44.925 -31.4710  0.00  0.00     0.000 C
ATOM     26  C4  GU1 D   2       8.628  43.534 -31.9980  0.00  0.00     0.000 C
ATOM     27  C5  GU1 D   2       7.608  42.523 -31.4640  0.00  0.00     0.000 C
ATOM     28  O5  GU1 D   2       7.561  42.567 -30.0410  0.00  0.00     0.000 O
ATOM     29   O  GU1 D   2       7.751  46.209 -29.5590  0.00  0.00     0.000 O
ATOM     30   C  GU1 D   2       8.329  46.621 -28.3280  0.00  0.00     0.000 C
ATOM     31   C  GU1 D   2       8.997  47.082 -32.2870  0.00  0.00     0.000 C
ATOM     32   O  GU1 D   2       9.391  45.800 -31.8030  0.00  0.00     0.000 O
BRANCH 27 33
ATOM     33   C  GU1 D   2       7.968  41.115 -31.8730  0.00  0.00     0.000 C
ATOM     34   O  GU1 D   2       8.989  40.628 -31.4310  0.00  0.00     0.000 OA
ATOM     35   O  GU1 D   2       7.245  40.483 -32.6270  0.00  0.00     0.000 O
ENDBRANCH 27 33
BRANCH 23 36
ATOM     36  O4  GU6 D   3       6.989  43.464 -28.2060  0.00  0.00     0.000 O
BRANCH 36 40
ATOM     37  C1  GU6 D   3       5.339  41.867 -24.8260  0.00  0.00     0.000 C
ATOM     38  C2  GU6 D   3       6.743  42.425 -24.6250  0.00  0.00     0.000 C
ATOM     39  C3  GU6 D   3       7.147  43.223 -25.8370  0.00  0.00     0.000 C
ATOM     40  C4  GU6 D   3       6.285  43.146 -27.0220  0.00  0.00     0.000 C
ATOM     41  C5  GU6 D   3       5.747  41.686 -27.1830  0.00  0.00     0.000 C
ATOM     42  O5  GU6 D   3       5.345  41.032 -25.9740  0.00  0.00     0.000 O
BRANCH 38 43
ATOM     43   O  GU6 D   3       6.793  43.241 -23.4710  0.00  0.00     0.000 O
ATOM     44   S  GU6 D   3       7.193  42.506 -22.1980  0.00  0.00     0.000 S
ATOM     45   O  GU6 D   3       6.005  41.825 -21.6560  0.00  0.00     0.000 OA
ATOM     46   O  GU6 D   3       8.220  41.504 -22.5360  0.00  0.00     0.000 O
ATOM     47   O  GU6 D   3       7.732  43.473 -21.2470  0.00  0.00     0.000 OA
ENDBRANCH 38 43
BRANCH 39 48
ATOM     48   O  GU6 D   3       8.180  44.187 -25.7610  0.00  0.00     0.000 O
ATOM     49   S  GU6 D   3       9.697  44.003 -25.7910  0.00  0.00     0.000 S
ATOM     50   O  GU6 D   3      10.093  43.266 -26.9960  0.00  0.00     0.000 OA
ATOM     51   O  GU6 D   3      10.199  45.383 -25.8230  0.00  0.00     0.000 OA
ATOM     52   O  GU6 D   3      10.113  43.258 -24.5810  0.00  0.00     0.000 O
ENDBRANCH 39 48
BRANCH 41 53
ATOM     53   C  GU6 D   3       5.577  40.872 -28.4370  0.00  0.00     0.000 C
ATOM     54   O  GU6 D   3       4.225  41.168 -28.6750  0.00  0.00     0.000 O
ATOM     55   S  GU6 D   3       3.468  40.484 -29.8220  0.00  0.00     0.000 S
ATOM     56   O  GU6 D   3       3.383  39.046 -29.4790  0.00  0.00     0.000 O
ATOM     57   O  GU6 D   3       2.126  41.077 -29.9160  0.00  0.00     0.000 OA
ATOM     58   O  GU6 D   3       4.260  40.692 -31.0550  0.00  0.00     0.000 OA
ENDBRANCH 41 53
BRANCH 37 59
ATOM     59  O4  Z9K D   4       4.132  42.657 -24.8750  0.00  0.00     0.000 O
BRANCH 59 63
ATOM     60  C1  Z9K D   4       1.079  42.204 -22.4420  0.00  0.00     0.000 C
ATOM     61  C2  Z9K D   4       1.126  40.811 -23.1290  0.00  0.00     0.000 C
ATOM     62  C3  Z9K D   4       2.468  40.936 -23.9720  0.00  0.00     0.000 C
ATOM     63  C4  Z9K D   4       2.735  42.249 -24.8010  0.00  0.00     0.000 C
ATOM     64  C5  Z9K D   4       2.048  43.523 -24.2860  0.00  0.00     0.000 C
ATOM     65  O5  Z9K D   4       2.011  43.312 -22.8500  0.00  0.00     0.000 O
ATOM     66   O  Z9K D   4       2.651  39.862 -24.9120  0.00  0.00     0.000 O
ATOM     67   C  Z9K D   4       3.262  38.704 -24.3680  0.00  0.00     0.000 C
BRANCH 61 68
ATOM     68   O  Z9K D   4       1.378  39.866 -22.1250  0.00  0.00     0.000 O
ATOM     69   O  Z9K D   4       0.004  38.850 -24.0310  0.00  0.00     0.000 OA
ATOM     70   S  Z9K D   4      -0.055  39.372 -22.6990  0.00  0.00     0.000 S
ATOM     71   O  Z9K D   4      -1.083  40.220 -22.1780  0.00  0.00     0.000 OA
ATOM     72   O  Z9K D   4       0.258  38.361 -21.7410  0.00  0.00     0.000 OA
ENDBRANCH 61 68
BRANCH 64 73
ATOM     73   C  Z9K D   4       2.750  44.785 -24.8320  0.00  0.00     0.000 C
ATOM     74   O  Z9K D   4       2.653  45.114 -26.0500  0.00  0.00     0.000 O
ATOM     75   O  Z9K D   4       3.436  45.533 -24.0930  0.00  0.00     0.000 OA
ENDBRANCH 64 73
BRANCH 60 76
ATOM     76  O4  Z9L D   5      -0.053  43.071 -22.2550  0.00  0.00     0.000 O
BRANCH 76 80
ATOM     77  C1  Z9L D   5      -2.022  45.356 -19.6340  0.00  0.00     0.000 C
ATOM     78  C2  Z9L D   5      -1.402  46.338 -20.7400  0.00  0.00     0.000 C
ATOM     79  C3  Z9L D   5      -0.980  45.374 -22.0640  0.00  0.00     0.000 C
ATOM     80  C4  Z9L D   5      -0.306  44.075 -21.3060  0.00  0.00     0.000 C
ATOM     81  C5  Z9L D   5      -0.810  43.215 -20.0390  0.00  0.00     0.000 C
ATOM     82  O5  Z9L D   5      -1.331  44.159 -19.0910  0.00  0.00     0.000 O
ATOM     83   C  Z9L D   5      -4.043  44.101 -19.1500  0.00  0.00     0.000 C
ATOM     84   C  Z9L D   5      -4.043  44.101 -19.1500  0.00  0.00     0.000 C
BRANCH 78 85
ATOM     85   O  Z9L D   5      -2.394  47.235 -21.1260  0.00  0.00     0.000 O
ATOM     86   O  Z9L D   5      -2.403  49.118 -20.7210  0.00  0.00     0.000 OA
ATOM     87   S  Z9L D   5      -1.327  48.218 -20.4350  0.00  0.00     0.000 S
ATOM     88   O  Z9L D   5      -0.257  48.623 -21.3130  0.00  0.00     0.000 OA
ATOM     89   O  Z9L D   5      -1.247  48.169 -19.0160  0.00  0.00     0.000 OA
ENDBRANCH 78 85
BRANCH 79 90
ATOM     90   O  Z9L D   5       0.099  45.912 -22.7600  0.00  0.00     0.000 O
ATOM     91   S  Z9L D   5      -0.990  45.900 -23.9220  0.00  0.00     0.000 S
ATOM     92   O  Z9L D   5      -2.264  46.557 -23.7910  0.00  0.00     0.000 OA
ATOM     93   O  Z9L D   5      -0.857  44.687 -24.6890  0.00  0.00     0.000 O
ATOM     94   O  Z9L D   5      -0.080  46.850 -24.4750  0.00  0.00     0.000 OA
ENDBRANCH 79 90
BRANCH 81 95
ATOM     95   C  Z9L D   5       0.204  42.000 -19.4820  0.00  0.00     0.000 C
ATOM     96   S  Z9L D   5       1.573  41.523 -18.1160  0.00  0.00     0.000 S
ATOM     97   O  Z9L D   5       1.205  42.816 -18.9360  0.00  0.00     0.000 O
ATOM     98   O  Z9L D   5       2.187  40.606 -19.0420  0.00  0.00     0.000 OA
ATOM     99   O  Z9L D   5       0.594  41.085 -17.1790  0.00  0.00     0.000 OA
ATOM    100   O  Z9L D   5       2.592  42.404 -17.6030  0.00  0.00     0.000 O
ENDBRANCH 81 95
ENDBRANCH 76 80
ENDBRANCH 60 76
ENDBRANCH 59 63
ENDBRANCH 37 59
ENDBRANCH 36 40
ENDBRANCH 23 36
ENDBRANCH 22 26
ENDBRANCH 1 22
TORSDOF 19
ENDMDL
MODEL 81
REMARK VINA RESULT:      -5.3     29.322     35.994
ROOT
ATOM      1  C1  Z9H D   1      11.226  43.710 -34.1320  0.00  0.00     0.000 C
ATOM      2  C2  Z9H D   1      11.912  44.719 -35.0830  0.00  0.00     0.000 C
ATOM      3  C3  Z9H D   1      11.506  44.061 -36.4370  0.00  0.00     0.000 C
ATOM      4  C4  Z9H D   1      11.804  42.509 -36.5530  0.00  0.00     0.000 C
ATOM      5  C5  Z9H D   1      11.420  41.468 -35.4270  0.00  0.00     0.000 C
ATOM      6  O5  Z9H D   1      11.514  42.288 -34.2350  0.00  0.00     0.000 O
ATOM      7   O  Z9H D   1      12.066  44.759 -37.5500  0.00  0.00     0.000 O
ATOM      8   C  Z9H D   1      11.182  45.687 -38.2020  0.00  0.00     0.000 C
ATOM      9   O  Z9H D   1      11.165  42.080 -37.7600  0.00  0.00     0.000 O
ATOM     10   C  Z9H D   1      12.020  41.956 -38.9010  0.00  0.00     0.000 C
ENDROOT
BRANCH 2 11
ATOM     11   O  Z9H D   1      11.083  45.845 -34.9600  0.00  0.00     0.000 O
ATOM     12   O  Z9H D   1      11.631  47.489 -34.2150  0.00  0.00     0.000 OA
ATOM     13   S  Z9H D   1      12.475  46.355 -34.3890  0.00  0.00     0.000 S
ATOM     14   O  Z9H D   1      13.394  46.478 -35.4840  0.00  0.00     0.000 OA
ATOM     15   O  Z9H D   1      12.780  45.754 -33.1110  0.00  0.00     0.000 O
ENDBRANCH 2 11
BRANCH 5 16
ATOM     16   C  Z9H D   1      12.200  39.991 -35.5320  0.00  0.00     0.000 C
ATOM     17   S  Z9H D   1      13.638  38.972 -36.4980  0.00  0.00     0.000 S
ATOM     18   O  Z9H D   1      13.466  40.469 -35.9180  0.00  0.00     0.000 O
ATOM     19   O  Z9H D   1      12.797  38.659 -37.6170  0.00  0.00     0.000 O
ATOM     20   O  Z9H D   1      13.895  38.062 -35.4370  0.00  0.00     0.000 OA
ATOM     21   O  Z9H D   1      14.894  39.529 -36.9090  0.00  0.00     0.000 OA
ENDBRANCH 5 16
BRANCH 1 22
ATOM     22  O4  GU1 D   2       9.754  43.690 -34.2070  0.00  0.00     0.000 O
BRANCH 22 26
ATOM     23  C1  GU1 D   2       6.284  43.372 -32.0110  0.00  0.00     0.000 C
ATOM     24  C2  GU1 D   2       7.432  44.068 -31.2950  0.00  0.00     0.000 C
ATOM     25  C3  GU1 D   2       8.478  44.460 -32.2980  0.00  0.00     0.000 C
ATOM     26  C4  GU1 D   2       8.901  43.264 -33.1390  0.00  0.00     0.000 C
ATOM     27  C5  GU1 D   2       7.666  42.574 -33.7280  0.00  0.00     0.000 C
ATOM     28  O5  GU1 D   2       6.754  42.216 -32.6930  0.00  0.00     0.000 O
ATOM     29   O  GU1 D   2       7.003  45.243 -30.6180  0.00  0.00     0.000 O
ATOM     30   C  GU1 D   2       6.735  45.046 -29.2370  0.00  0.00     0.000 C
ATOM     31   C  GU1 D   2       9.755  46.367 -31.5750  0.00  0.00     0.000 C
ATOM     32   O  GU1 D   2       9.622  44.948 -31.5900  0.00  0.00     0.000 O
BRANCH 27 33
ATOM     33   C  GU1 D   2       8.045  41.314 -34.4680  0.00  0.00     0.000 C
ATOM     34   O  GU1 D   2       7.906  41.288 -35.6740  0.00  0.00     0.000 OA
ATOM     35   O  GU1 D   2       8.485  40.348 -33.8640  0.00  0.00     0.000 O
ENDBRANCH 27 33
BRANCH 23 36
ATOM     36  O4  GU6 D   3       5.272  42.683 -31.2500  0.00  0.00     0.000 O
BRANCH 36 40
ATOM     37  C1  GU6 D   3       2.567  41.411 -28.4640  0.00  0.00     0.000 C
ATOM     38  C2  GU6 D   3       3.989  40.924 -28.2140  0.00  0.00     0.000 C
ATOM     39  C3  GU6 D   3       4.941  41.658 -29.1210  0.00  0.00     0.000 C
ATOM     40  C4  GU6 D   3       4.366  42.491 -30.1820  0.00  0.00     0.000 C
ATOM     41  C5  GU6 D   3       3.100  41.786 -30.7730  0.00  0.00     0.000 C
ATOM     42  O5  GU6 D   3       2.234  41.158 -29.8200  0.00  0.00     0.000 O
BRANCH 38 43
ATOM     43   O  GU6 D   3       4.354  41.128 -26.8630  0.00  0.00     0.000 O
ATOM     44   S  GU6 D   3       4.214  39.895 -25.9800  0.00  0.00     0.000 S
ATOM     45   O  GU6 D   3       2.804  39.769 -25.5720  0.00  0.00     0.000 OA
ATOM     46   O  GU6 D   3       4.605  38.708 -26.7620  0.00  0.00     0.000 O
ATOM     47   O  GU6 D   3       5.091  40.043 -24.8230  0.00  0.00     0.000 OA
ENDBRANCH 38 43
BRANCH 39 48
ATOM     48   O  GU6 D   3       6.322  41.729 -28.8200  0.00  0.00     0.000 O
ATOM     49   S  GU6 D   3       7.439  40.724 -29.0960  0.00  0.00     0.000 S
ATOM     50   O  GU6 D   3       7.483  40.398 -30.5260  0.00  0.00     0.000 OA
ATOM     51   O  GU6 D   3       8.648  41.447 -28.6790  0.00  0.00     0.000 OA
ATOM     52   O  GU6 D   3       7.189  39.498 -28.3050  0.00  0.00     0.000 O
ENDBRANCH 39 48
BRANCH 41 53
ATOM     53   C  GU6 D   3       2.653  41.686 -32.2060  0.00  0.00     0.000 C
ATOM     54   O  GU6 D   3       1.953  42.901 -32.2730  0.00  0.00     0.000 O
ATOM     55   S  GU6 D   3       1.165  43.277 -33.5350  0.00  0.00     0.000 S
ATOM     56   O  GU6 D   3       0.051  42.307 -33.6470  0.00  0.00     0.000 O
ATOM     57   O  GU6 D   3       0.649  44.645 -33.3750  0.00  0.00     0.000 OA
ATOM     58   O  GU6 D   3       2.092  43.159 -34.6830  0.00  0.00     0.000 OA
ENDBRANCH 41 53
BRANCH 37 59
ATOM     59  O4  Z9K D   4       2.074  42.728 -28.1390  0.00  0.00     0.000 O
BRANCH 59 63
ATOM     60  C1  Z9K D   4       1.085  42.449 -24.3460  0.00  0.00     0.000 C
ATOM     61  C2  Z9K D   4      -0.252  42.060 -25.0340  0.00  0.00     0.000 C
ATOM     62  C3  Z9K D   4       0.202  41.994 -26.5570  0.00  0.00     0.000 C
ATOM     63  C4  Z9K D   4       1.099  43.151 -27.1420  0.00  0.00     0.000 C
ATOM     64  C5  Z9K D   4       1.973  43.905 -26.1280  0.00  0.00     0.000 C
ATOM     65  O5  Z9K D   4       2.284  42.881 -25.1460  0.00  0.00     0.000 O
ATOM     66   O  Z9K D   4      -0.901  41.883 -27.4750  0.00  0.00     0.000 O
ATOM     67   C  Z9K D   4      -1.349  40.555 -27.6940  0.00  0.00     0.000 C
BRANCH 61 68
ATOM     68   O  Z9K D   4      -0.542  40.743 -24.6530  0.00  0.00     0.000 O
ATOM     69   O  Z9K D   4      -2.684  42.093 -25.0250  0.00  0.00     0.000 OA
ATOM     70   S  Z9K D   4      -1.800  41.555 -24.0350  0.00  0.00     0.000 S
ATOM     71   O  Z9K D   4      -1.383  42.218 -22.8380  0.00  0.00     0.000 OA
ATOM     72   O  Z9K D   4      -2.133  40.200 -23.7370  0.00  0.00     0.000 OA
ENDBRANCH 61 68
BRANCH 64 73
ATOM     73   C  Z9K D   4       3.136  44.630 -26.8370  0.00  0.00     0.000 C
ATOM     74   O  Z9K D   4       4.337  44.278 -26.6540  0.00  0.00     0.000 O
ATOM     75   O  Z9K D   4       2.936  45.588 -27.6240  0.00  0.00     0.000 OA
ENDBRANCH 64 73
BRANCH 60 76
ATOM     76  O4  Z9L D   5       1.304  43.402 -23.2910  0.00  0.00     0.000 O
BRANCH 76 80
ATOM     77  C1  Z9L D   5       3.158  44.078 -19.8160  0.00  0.00     0.000 C
ATOM     78  C2  Z9L D   5       3.833  45.044 -20.9040  0.00  0.00     0.000 C
ATOM     79  C3  Z9L D   5       2.776  45.102 -22.2240  0.00  0.00     0.000 C
ATOM     80  C4  Z9L D   5       2.335  43.520 -22.3450  0.00  0.00     0.000 C
ATOM     81  C5  Z9L D   5       1.872  42.465 -21.2170  0.00  0.00     0.000 C
ATOM     82  O5  Z9L D   5       2.727  42.683 -20.0850  0.00  0.00     0.000 O
ATOM     83   C  Z9L D   5       1.372  44.050 -18.1730  0.00  0.00     0.000 C
ATOM     84   C  Z9L D   5       1.372  44.050 -18.1730  0.00  0.00     0.000 C
BRANCH 78 85
ATOM     85   O  Z9L D   5       3.938  46.315 -20.3480  0.00  0.00     0.000 O
ATOM     86   O  Z9L D   5       5.590  47.179 -19.8630  0.00  0.00     0.000 OA
ATOM     87   S  Z9L D   5       5.484  45.927 -20.5500  0.00  0.00     0.000 S
ATOM     88   O  Z9L D   5       5.979  46.187 -21.8790  0.00  0.00     0.000 OA
ATOM     89   O  Z9L D   5       6.017  44.961 -19.6520  0.00  0.00     0.000 OA
ENDBRANCH 78 85
BRANCH 79 90
ATOM     90   O  Z9L D   5       3.464  45.317 -23.4150  0.00  0.00     0.000 O
ATOM     91   S  Z9L D   5       2.538  46.612 -23.4050  0.00  0.00     0.000 S
ATOM     92   O  Z9L D   5       2.529  47.545 -22.3080  0.00  0.00     0.000 OA
ATOM     93   O  Z9L D   5       1.340  46.349 -24.1630  0.00  0.00     0.000 O
ATOM     94   O  Z9L D   5       3.533  47.054 -24.3280  0.00  0.00     0.000 OA
ENDBRANCH 79 90
BRANCH 81 95
ATOM     95   C  Z9L D   5       1.585  40.888 -21.7100  0.00  0.00     0.000 C
ATOM     96   S  Z9L D   5       2.386  39.075 -21.9110  0.00  0.00     0.000 S
ATOM     97   O  Z9L D   5       2.897  40.555 -22.0750  0.00  0.00     0.000 O
ATOM     98   O  Z9L D   5       1.520  38.809 -23.0310  0.00  0.00     0.000 OA
ATOM     99   O  Z9L D   5       2.027  38.687 -20.5880  0.00  0.00     0.000 OA
ATOM    100   O  Z9L D   5       3.744  38.794 -22.3080  0.00  0.00     0.000 O
ENDBRANCH 81 95
ENDBRANCH 76 80
ENDBRANCH 60 76
ENDBRANCH 59 63
ENDBRANCH 37 59
ENDBRANCH 36 40
ENDBRANCH 23 36
ENDBRANCH 22 26
ENDBRANCH 1 22
TORSDOF 19
ENDMDL
MODEL 82
REMARK VINA RESULT:      -5.3     22.460     29.958
ROOT
ATOM      1  C1  Z9H D   1      28.159  43.829  -3.6040  0.00  0.00     0.000 C
ATOM      2  C2  Z9H D   1      27.581  42.767  -2.6380  0.00  0.00     0.000 C
ATOM      3  C3  Z9H D   1      26.122  43.311  -2.5580  0.00  0.00     0.000 C
ATOM      4  C4  Z9H D   1      25.989  44.857  -2.2340  0.00  0.00     0.000 C
ATOM      5  C5  Z9H D   1      26.832  45.970  -2.9750  0.00  0.00     0.000 C
ATOM      6  O5  Z9H D   1      28.047  45.246  -3.2940  0.00  0.00     0.000 O
ATOM      7   O  Z9H D   1      25.323  42.544  -1.6550  0.00  0.00     0.000 O
ATOM      8   C  Z9H D   1      24.486  41.548  -2.2660  0.00  0.00     0.000 C
ATOM      9   O  Z9H D   1      24.607  45.177  -2.4230  0.00  0.00     0.000 O
ATOM     10   C  Z9H D   1      23.818  45.235  -1.2310  0.00  0.00     0.000 C
ENDROOT
BRANCH 2 11
ATOM     11   O  Z9H D   1      27.504  41.634  -3.4630  0.00  0.00     0.000 O
ATOM     12   O  Z9H D   1      28.526  40.069  -3.2110  0.00  0.00     0.000 OA
ATOM     13   S  Z9H D   1      28.560  41.207  -2.3550  0.00  0.00     0.000 S
ATOM     14   O  Z9H D   1      27.862  41.021  -1.1150  0.00  0.00     0.000 OA
ATOM     15   O  Z9H D   1      29.809  41.916  -2.5070  0.00  0.00     0.000 O
ENDBRANCH 2 11
BRANCH 5 16
ATOM     16   C  Z9H D   1      26.881  47.454  -2.2030  0.00  0.00     0.000 C
ATOM     17   S  Z9H D   1      26.909  49.442  -2.4930  0.00  0.00     0.000 S
ATOM     18   O  Z9H D   1      26.133  48.185  -3.1450  0.00  0.00     0.000 O
ATOM     19   O  Z9H D   1      28.320  49.480  -2.7530  0.00  0.00     0.000 O
ATOM     20   O  Z9H D   1      26.339  49.771  -1.2340  0.00  0.00     0.000 OA
ATOM     21   O  Z9H D   1      26.159  50.128  -3.5050  0.00  0.00     0.000 OA
ENDBRANCH 5 16
BRANCH 1 22
ATOM     22  O4  GU1 D   2      27.588  43.806  -4.9630  0.00  0.00     0.000 O
BRANCH 22 26
ATOM     23  C1  GU1 D   2      28.393  44.241  -8.9790  0.00  0.00     0.000 C
ATOM     24  C2  GU1 D   2      29.485  43.548  -8.1790  0.00  0.00     0.000 C
ATOM     25  C3  GU1 D   2      28.931  43.112  -6.8540  0.00  0.00     0.000 C
ATOM     26  C4  GU1 D   2      28.271  44.277  -6.1300  0.00  0.00     0.000 C
ATOM     27  C5  GU1 D   2      27.266  44.968  -7.0560  0.00  0.00     0.000 C
ATOM     28  O5  GU1 D   2      27.899  45.370  -8.2680  0.00  0.00     0.000 O
ATOM     29   O  GU1 D   2      29.989  42.399  -8.8500  0.00  0.00     0.000 O
ATOM     30   C  GU1 D   2      31.179  42.640  -9.5870  0.00  0.00     0.000 C
ATOM     31   C  GU1 D   2      30.102  41.205  -5.9670  0.00  0.00     0.000 C
ATOM     32   O  GU1 D   2      30.010  42.626  -6.0500  0.00  0.00     0.000 O
BRANCH 27 33
ATOM     33   C  GU1 D   2      26.684  46.201  -6.4070  0.00  0.00     0.000 C
ATOM     34   O  GU1 D   2      25.494  46.219  -6.1650  0.00  0.00     0.000 OA
ATOM     35   O  GU1 D   2      27.397  47.153  -6.1310  0.00  0.00     0.000 O
ENDBRANCH 27 33
BRANCH 23 36
ATOM     36  O4  GU6 D   3      28.728  44.967 -10.1790  0.00  0.00     0.000 O
BRANCH 36 40
ATOM     37  C1  GU6 D   3      29.820  47.927 -12.7740  0.00  0.00     0.000 C
ATOM     38  C2  GU6 D   3      29.201  46.710 -13.4500  0.00  0.00     0.000 C
ATOM     39  C3  GU6 D   3      28.592  45.809 -12.4070  0.00  0.00     0.000 C
ATOM     40  C4  GU6 D   3      28.875  46.108 -10.9990  0.00  0.00     0.000 C
ATOM     41  C5  GU6 D   3      30.355  46.592 -10.8550  0.00  0.00     0.000 C
ATOM     42  O5  GU6 D   3      30.823  47.484 -11.8730  0.00  0.00     0.000 O
BRANCH 38 43
ATOM     43   O  GU6 D   3      28.214  47.106 -14.3820  0.00  0.00     0.000 O
ATOM     44   S  GU6 D   3      28.691  47.135 -15.8290  0.00  0.00     0.000 S
ATOM     45   O  GU6 D   3      29.408  48.401 -16.0600  0.00  0.00     0.000 OA
ATOM     46   O  GU6 D   3      29.612  46.004 -16.0430  0.00  0.00     0.000 O
ATOM     47   O  GU6 D   3      27.533  47.011 -16.7080  0.00  0.00     0.000 OA
ENDBRANCH 38 43
BRANCH 39 48
ATOM     48   O  GU6 D   3      27.602  44.860 -12.7560  0.00  0.00     0.000 O
ATOM     49   S  GU6 D   3      27.753  43.415 -13.2300  0.00  0.00     0.000 S
ATOM     50   O  GU6 D   3      28.547  42.646 -12.2650  0.00  0.00     0.000 OA
ATOM     51   O  GU6 D   3      26.365  42.935 -13.2790  0.00  0.00     0.000 OA
ATOM     52   O  GU6 D   3      28.419  43.412 -14.5520  0.00  0.00     0.000 O
ENDBRANCH 39 48
BRANCH 41 53
ATOM     53   C  GU6 D   3      31.359  46.264  -9.7820  0.00  0.00     0.000 C
ATOM     54   O  GU6 D   3      30.817  47.062  -8.7620  0.00  0.00     0.000 O
ATOM     55   S  GU6 D   3      31.538  47.200  -7.4150  0.00  0.00     0.000 S
ATOM     56   O  GU6 D   3      32.809  47.912  -7.6810  0.00  0.00     0.000 O
ATOM     57   O  GU6 D   3      30.686  47.979  -6.5050  0.00  0.00     0.000 OA
ATOM     58   O  GU6 D   3      31.791  45.831  -6.9110  0.00  0.00     0.000 OA
ENDBRANCH 41 53
BRANCH 37 59
ATOM     59  O4  Z9K D   4      29.078  48.973 -12.1110  0.00  0.00     0.000 O
BRANCH 59 63
ATOM     60  C1  Z9K D   4      28.430  52.811 -11.5670  0.00  0.00     0.000 C
ATOM     61  C2  Z9K D   4      29.941  52.809 -11.9260  0.00  0.00     0.000 C
ATOM     62  C3  Z9K D   4      30.155  51.284 -12.3240  0.00  0.00     0.000 C
ATOM     63  C4  Z9K D   4      29.546  50.158 -11.4040  0.00  0.00     0.000 C
ATOM     64  C5  Z9K D   4      28.314  50.555 -10.5770  0.00  0.00     0.000 C
ATOM     65  O5  Z9K D   4      27.655  51.529 -11.4280  0.00  0.00     0.000 O
ATOM     66   O  Z9K D   4      31.539  50.926 -12.4800  0.00  0.00     0.000 O
ATOM     67   C  Z9K D   4      32.072  51.193 -13.7670  0.00  0.00     0.000 C
BRANCH 61 68
ATOM     68   O  Z9K D   4      30.084  53.548 -13.1090  0.00  0.00     0.000 O
ATOM     69   O  Z9K D   4      32.139  53.802 -11.6050  0.00  0.00     0.000 OA
ATOM     70   S  Z9K D   4      30.935  54.435 -12.0550  0.00  0.00     0.000 S
ATOM     71   O  Z9K D   4      30.031  55.186 -11.2400  0.00  0.00     0.000 OA
ATOM     72   O  Z9K D   4      31.153  55.126 -13.2840  0.00  0.00     0.000 OA
ENDBRANCH 61 68
BRANCH 64 73
ATOM     73   C  Z9K D   4      27.526  49.306 -10.1300  0.00  0.00     0.000 C
ATOM     74   O  Z9K D   4      27.874  48.641  -9.1120  0.00  0.00     0.000 O
ATOM     75   O  Z9K D   4      26.512  48.906 -10.7530  0.00  0.00     0.000 OA
ENDBRANCH 64 73
BRANCH 60 76
ATOM     76  O4  Z9L D   5      27.773  53.460 -10.4650  0.00  0.00     0.000 O
BRANCH 76 80
ATOM     77  C1  Z9L D   5      24.583  55.602  -9.3640  0.00  0.00     0.000 C
ATOM     78  C2  Z9L D   5      24.464  54.175  -8.6410  0.00  0.00     0.000 C
ATOM     79  C3  Z9L D   5      25.994  53.459  -8.7240  0.00  0.00     0.000 C
ATOM     80  C4  Z9L D   5      26.432  53.827 -10.2690  0.00  0.00     0.000 C
ATOM     81  C5  Z9L D   5      26.343  55.213 -11.0880  0.00  0.00     0.000 C
ATOM     82  O5  Z9L D   5      25.078  55.801 -10.7500  0.00  0.00     0.000 O
ATOM     83   C  Z9L D   5      25.463  57.834  -8.9940  0.00  0.00     0.000 C
ATOM     84   C  Z9L D   5      25.463  57.834  -8.9940  0.00  0.00     0.000 C
BRANCH 78 85
ATOM     85   O  Z9L D   5      24.134  54.394  -7.3070  0.00  0.00     0.000 O
ATOM     86   O  Z9L D   5      22.423  54.004  -6.5120  0.00  0.00     0.000 OA
ATOM     87   S  Z9L D   5      22.807  53.666  -7.8480  0.00  0.00     0.000 S
ATOM     88   O  Z9L D   5      22.897  52.227  -7.8590  0.00  0.00     0.000 OA
ATOM     89   O  Z9L D   5      21.959  54.439  -8.6880  0.00  0.00     0.000 OA
ENDBRANCH 78 85
BRANCH 79 90
ATOM     90   O  Z9L D   5      25.903  52.070  -8.7570  0.00  0.00     0.000 O
ATOM     91   S  Z9L D   5      26.772  52.249  -7.4350  0.00  0.00     0.000 S
ATOM     92   O  Z9L D   5      26.331  53.051  -6.3250  0.00  0.00     0.000 OA
ATOM     93   O  Z9L D   5      28.172  52.148  -7.7670  0.00  0.00     0.000 O
ATOM     94   O  Z9L D   5      26.295  50.922  -7.2140  0.00  0.00     0.000 OA
ENDBRANCH 79 90
BRANCH 81 95
ATOM     95   C  Z9L D   5      26.806  55.184 -12.7000  0.00  0.00     0.000 C
ATOM     96   S  Z9L D   5      26.274  55.682 -14.5540  0.00  0.00     0.000 S
ATOM     97   O  Z9L D   5      25.525  55.161 -13.2710  0.00  0.00     0.000 O
ATOM     98   O  Z9L D   5      27.026  54.570 -15.0760  0.00  0.00     0.000 OA
ATOM     99   O  Z9L D   5      26.849  56.981 -14.4510  0.00  0.00     0.000 OA
ATOM    100   O  Z9L D   5      24.938  55.621 -15.0910  0.00  0.00     0.000 O
ENDBRANCH 81 95
ENDBRANCH 76 80
ENDBRANCH 60 76
ENDBRANCH 59 63
ENDBRANCH 37 59
ENDBRANCH 36 40
ENDBRANCH 23 36
ENDBRANCH 22 26
ENDBRANCH 1 22
TORSDOF 19
ENDMDL
MODEL 83
REMARK VINA RESULT:      -5.3     14.793     21.803
ROOT
ATOM      1  C1  Z9H D   1      26.236  50.208 -11.5300  0.00  0.00     0.000 C
ATOM      2  C2  Z9H D   1      24.934  50.743 -10.8870  0.00  0.00     0.000 C
ATOM      3  C3  Z9H D   1      24.134  51.013 -12.1990  0.00  0.00     0.000 C
ATOM      4  C4  Z9H D   1      24.900  51.859 -13.2990  0.00  0.00     0.000 C
ATOM      5  C5  Z9H D   1      26.385  51.552 -13.7460  0.00  0.00     0.000 C
ATOM      6  O5  Z9H D   1      26.942  50.995 -12.5290  0.00  0.00     0.000 O
ATOM      7   O  Z9H D   1      22.857  51.593 -11.9260  0.00  0.00     0.000 O
ATOM      8   C  Z9H D   1      21.752  50.674 -11.9220  0.00  0.00     0.000 C
ATOM      9   O  Z9H D   1      24.084  51.798 -14.4730  0.00  0.00     0.000 O
ATOM     10   C  Z9H D   1      23.250  52.937 -14.7050  0.00  0.00     0.000 C
ENDROOT
BRANCH 2 11
ATOM     11   O  Z9H D   1      24.371  49.574 -10.3510  0.00  0.00     0.000 O
ATOM     12   O  Z9H D   1      24.183  49.240  -8.5040  0.00  0.00     0.000 OA
ATOM     13   S  Z9H D   1      24.707  50.441  -9.0630  0.00  0.00     0.000 S
ATOM     14   O  Z9H D   1      23.796  51.549  -9.0150  0.00  0.00     0.000 OA
ATOM     15   O  Z9H D   1      26.131  50.524  -8.8310  0.00  0.00     0.000 O
ENDBRANCH 2 11
BRANCH 5 16
ATOM     16   C  Z9H D   1      27.149  52.795 -14.5650  0.00  0.00     0.000 C
ATOM     17   S  Z9H D   1      26.963  54.700 -15.1780  0.00  0.00     0.000 S
ATOM     18   O  Z9H D   1      26.596  53.869 -13.8430  0.00  0.00     0.000 O
ATOM     19   O  Z9H D   1      26.190  54.352 -16.3360  0.00  0.00     0.000 O
ATOM     20   O  Z9H D   1      28.358  54.965 -15.2230  0.00  0.00     0.000 OA
ATOM     21   O  Z9H D   1      26.344  55.744 -14.4140  0.00  0.00     0.000 OA
ENDBRANCH 5 16
BRANCH 1 22
ATOM     22  O4  GU1 D   2      26.092  48.930 -12.2490  0.00  0.00     0.000 O
BRANCH 22 26
ATOM     23  C1  GU1 D   2      27.913  45.354 -13.1820  0.00  0.00     0.000 C
ATOM     24  C2  GU1 D   2      28.195  45.868 -11.7790  0.00  0.00     0.000 C
ATOM     25  C3  GU1 D   2      27.200  46.937 -11.4310  0.00  0.00     0.000 C
ATOM     26  C4  GU1 D   2      27.172  48.022 -12.4980  0.00  0.00     0.000 C
ATOM     27  C5  GU1 D   2      26.987  47.391 -13.8820  0.00  0.00     0.000 C
ATOM     28  O5  GU1 D   2      27.998  46.417 -14.1250  0.00  0.00     0.000 O
ATOM     29   O  GU1 D   2      28.097  44.836 -10.8040  0.00  0.00     0.000 O
ATOM     30   C  GU1 D   2      29.345  44.256 -10.4550  0.00  0.00     0.000 C
ATOM     31   C  GU1 D   2      26.834  47.096  -9.0580  0.00  0.00     0.000 C
ATOM     32   O  GU1 D   2      27.588  47.529 -10.1870  0.00  0.00     0.000 O
BRANCH 27 33
ATOM     33   C  GU1 D   2      27.076  48.432 -14.9730  0.00  0.00     0.000 C
ATOM     34   O  GU1 D   2      26.070  48.703 -15.5960  0.00  0.00     0.000 OA
ATOM     35   O  GU1 D   2      28.136  48.988 -15.2160  0.00  0.00     0.000 O
ENDBRANCH 27 33
BRANCH 23 36
ATOM     36  O4  GU6 D   3      28.870  44.504 -13.8440  0.00  0.00     0.000 O
BRANCH 36 40
ATOM     37  C1  GU6 D   3      30.610  41.455 -15.9350  0.00  0.00     0.000 C
ATOM     38  C2  GU6 D   3      31.587  42.262 -15.0900  0.00  0.00     0.000 C
ATOM     39  C3  GU6 D   3      30.823  43.170 -14.1620  0.00  0.00     0.000 C
ATOM     40  C4  GU6 D   3      29.376  43.293 -14.3690  0.00  0.00     0.000 C
ATOM     41  C5  GU6 D   3      29.065  43.289 -15.9020  0.00  0.00     0.000 C
ATOM     42  O5  GU6 D   3      29.813  42.356 -16.6890  0.00  0.00     0.000 O
BRANCH 38 43
ATOM     43   O  GU6 D   3      32.426  41.403 -14.3420  0.00  0.00     0.000 O
ATOM     44   S  GU6 D   3      33.817  41.212 -14.9320  0.00  0.00     0.000 S
ATOM     45   O  GU6 D   3      33.740  40.197 -15.9970  0.00  0.00     0.000 OA
ATOM     46   O  GU6 D   3      34.265  42.493 -15.5070  0.00  0.00     0.000 O
ATOM     47   O  GU6 D   3      34.726  40.797 -13.8680  0.00  0.00     0.000 OA
ENDBRANCH 38 43
BRANCH 39 48
ATOM     48   O  GU6 D   3      31.430  43.697 -12.9980  0.00  0.00     0.000 O
ATOM     49   S  GU6 D   3      32.280  44.954 -12.8190  0.00  0.00     0.000 S
ATOM     50   O  GU6 D   3      31.554  46.130 -13.3100  0.00  0.00     0.000 OA
ATOM     51   O  GU6 D   3      32.475  45.019 -11.3640  0.00  0.00     0.000 OA
ATOM     52   O  GU6 D   3      33.544  44.789 -13.5710  0.00  0.00     0.000 O
ENDBRANCH 39 48
BRANCH 41 53
ATOM     53   C  GU6 D   3      28.074  44.122 -16.6700  0.00  0.00     0.000 C
ATOM     54   O  GU6 D   3      28.969  44.677 -17.5980  0.00  0.00     0.000 O
ATOM     55   S  GU6 D   3      28.494  45.737 -18.6010  0.00  0.00     0.000 S
ATOM     56   O  GU6 D   3      28.129  46.938 -17.8130  0.00  0.00     0.000 O
ATOM     57   O  GU6 D   3      29.598  46.037 -19.5240  0.00  0.00     0.000 OA
ATOM     58   O  GU6 D   3      27.314  45.182 -19.3010  0.00  0.00     0.000 OA
ENDBRANCH 41 53
BRANCH 37 59
ATOM     59  O4  Z9K D   4      29.734  40.425 -15.4320  0.00  0.00     0.000 O
BRANCH 59 63
ATOM     60  C1  Z9K D   4      32.000  37.215 -15.5280  0.00  0.00     0.000 C
ATOM     61  C2  Z9K D   4      31.307  37.136 -16.9160  0.00  0.00     0.000 C
ATOM     62  C3  Z9K D   4      30.536  38.527 -16.9480  0.00  0.00     0.000 C
ATOM     63  C4  Z9K D   4      29.731  38.988 -15.6740  0.00  0.00     0.000 C
ATOM     64  C5  Z9K D   4      30.218  38.427 -14.3290  0.00  0.00     0.000 C
ATOM     65  O5  Z9K D   4      31.649  38.290 -14.5360  0.00  0.00     0.000 O
ATOM     66   O  Z9K D   4      29.600  38.633 -18.0350  0.00  0.00     0.000 O
ATOM     67   C  Z9K D   4      30.168  39.076 -19.2570  0.00  0.00     0.000 C
BRANCH 61 68
ATOM     68   O  Z9K D   4      32.316  37.223 -17.8850  0.00  0.00     0.000 O
ATOM     69   O  Z9K D   4      30.375  35.767 -18.6980  0.00  0.00     0.000 OA
ATOM     70   S  Z9K D   4      31.705  35.750 -18.1690  0.00  0.00     0.000 S
ATOM     71   O  Z9K D   4      32.200  34.842 -17.1800  0.00  0.00     0.000 OA
ATOM     72   O  Z9K D   4      32.670  35.889 -19.2110  0.00  0.00     0.000 OA
ENDBRANCH 61 68
BRANCH 64 73
ATOM     73   C  Z9K D   4      29.718  39.299 -13.1580  0.00  0.00     0.000 C
ATOM     74   O  Z9K D   4      30.526  39.950 -12.4340  0.00  0.00     0.000 O
ATOM     75   O  Z9K D   4      28.497  39.401 -12.8830  0.00  0.00     0.000 OA
ENDBRANCH 64 73
BRANCH 60 76
ATOM     76  O4  Z9L D   5      32.133  36.184 -14.5350  0.00  0.00     0.000 O
BRANCH 76 80
ATOM     77  C1  Z9L D   5      34.686  34.399 -12.0310  0.00  0.00     0.000 C
ATOM     78  C2  Z9L D   5      33.570  35.118 -11.1310  0.00  0.00     0.000 C
ATOM     79  C3  Z9L D   5      32.270  35.466 -12.1550  0.00  0.00     0.000 C
ATOM     80  C4  Z9L D   5      33.060  36.012 -13.4940  0.00  0.00     0.000 C
ATOM     81  C5  Z9L D   5      34.337  35.418 -14.2800  0.00  0.00     0.000 C
ATOM     82  O5  Z9L D   5      35.260  34.974 -13.2750  0.00  0.00     0.000 O
ATOM     83   C  Z9L D   5      35.167  32.268 -13.0890  0.00  0.00     0.000 C
ATOM     84   C  Z9L D   5      35.167  32.268 -13.0890  0.00  0.00     0.000 C
BRANCH 78 85
ATOM     85   O  Z9L D   5      33.154  34.216 -10.1560  0.00  0.00     0.000 O
ATOM     86   O  Z9L D   5      33.542  34.362  -8.2750  0.00  0.00     0.000 OA
ATOM     87   S  Z9L D   5      33.859  35.350  -9.2610  0.00  0.00     0.000 S
ATOM     88   O  Z9L D   5      33.000  36.468  -8.9590  0.00  0.00     0.000 OA
ATOM     89   O  Z9L D   5      35.280  35.396  -9.3010  0.00  0.00     0.000 OA
ENDBRANCH 78 85
BRANCH 79 90
ATOM     90   O  Z9L D   5      31.578  36.597 -11.7300  0.00  0.00     0.000 O
ATOM     91   S  Z9L D   5      30.376  35.555 -11.7880  0.00  0.00     0.000 S
ATOM     92   O  Z9L D   5      30.397  34.312 -11.0630  0.00  0.00     0.000 OA
ATOM     93   O  Z9L D   5      29.719  35.655 -13.0680  0.00  0.00     0.000 O
ATOM     94   O  Z9L D   5      29.785  36.533 -10.9340  0.00  0.00     0.000 OA
ENDBRANCH 79 90
BRANCH 81 95
ATOM     95   C  Z9L D   5      34.929  36.311 -15.5700  0.00  0.00     0.000 C
ATOM     96   S  Z9L D   5      36.378  36.439 -16.9300  0.00  0.00     0.000 S
ATOM     97   O  Z9L D   5      36.286  35.988 -15.4240  0.00  0.00     0.000 O
ATOM     98   O  Z9L D   5      36.250  37.873 -16.9430  0.00  0.00     0.000 OA
ATOM     99   O  Z9L D   5      35.678  35.624 -17.8640  0.00  0.00     0.000 OA
ATOM    100   O  Z9L D   5      37.765  36.107 -16.7160  0.00  0.00     0.000 O
ENDBRANCH 81 95
ENDBRANCH 76 80
ENDBRANCH 60 76
ENDBRANCH 59 63
ENDBRANCH 37 59
ENDBRANCH 36 40
ENDBRANCH 23 36
ENDBRANCH 22 26
ENDBRANCH 1 22
TORSDOF 19
ENDMDL
MODEL 84
REMARK VINA RESULT:      -5.3     34.441     41.119
ROOT
ATOM      1  C1  Z9H D   1      22.977   4.500 -48.7310  0.00  0.00     0.000 C
ATOM      2  C2  Z9H D   1      24.011   5.133 -47.7690  0.00  0.00     0.000 C
ATOM      3  C3  Z9H D   1      23.212   6.421 -47.4010  0.00  0.00     0.000 C
ATOM      4  C4  Z9H D   1      22.642   7.242 -48.6300  0.00  0.00     0.000 C
ATOM      5  C5  Z9H D   1      21.863   6.571 -49.8300  0.00  0.00     0.000 C
ATOM      6  O5  Z9H D   1      22.468   5.254 -49.8660  0.00  0.00     0.000 O
ATOM      7   O  Z9H D   1      23.963   7.277 -46.5370  0.00  0.00     0.000 O
ATOM      8   C  Z9H D   1      23.648   7.170 -45.1380  0.00  0.00     0.000 C
ATOM      9   O  Z9H D   1      21.778   8.235 -48.0670  0.00  0.00     0.000 O
ATOM     10   C  Z9H D   1      22.346   9.541 -47.9300  0.00  0.00     0.000 C
ENDROOT
BRANCH 2 11
ATOM     11   O  Z9H D   1      23.908   4.304 -46.6420  0.00  0.00     0.000 O
ATOM     12   O  Z9H D   1      25.251   3.102 -46.0840  0.00  0.00     0.000 OA
ATOM     13   S  Z9H D   1      25.362   3.984 -47.1970  0.00  0.00     0.000 S
ATOM     14   O  Z9H D   1      26.199   5.124 -46.9540  0.00  0.00     0.000 OA
ATOM     15   O  Z9H D   1      25.309   3.241 -48.4360  0.00  0.00     0.000 O
ENDBRANCH 2 11
BRANCH 5 16
ATOM     16   C  Z9H D   1      21.741   7.511 -51.2100  0.00  0.00     0.000 C
ATOM     17   S  Z9H D   1      21.556   7.452 -53.2110  0.00  0.00     0.000 S
ATOM     18   O  Z9H D   1      20.929   6.642 -51.9630  0.00  0.00     0.000 O
ATOM     19   O  Z9H D   1      22.957   7.233 -53.4290  0.00  0.00     0.000 O
ATOM     20   O  Z9H D   1      20.940   8.728 -53.3270  0.00  0.00     0.000 OA
ATOM     21   O  Z9H D   1      20.748   6.509 -53.9260  0.00  0.00     0.000 OA
ENDBRANCH 5 16
BRANCH 1 22
ATOM     22  O4  GU1 D   2      21.713   4.087 -48.0960  0.00  0.00     0.000 O
BRANCH 22 26
ATOM     23  C1  GU1 D   2      18.469   1.565 -48.3940  0.00  0.00     0.000 C
ATOM     24  C2  GU1 D   2      19.775   0.995 -48.9280  0.00  0.00     0.000 C
ATOM     25  C3  GU1 D   2      20.922   1.822 -48.4250  0.00  0.00     0.000 C
ATOM     26  C4  GU1 D   2      20.710   3.296 -48.7420  0.00  0.00     0.000 C
ATOM     27  C5  GU1 D   2      19.327   3.743 -48.2570  0.00  0.00     0.000 C
ATOM     28  O5  GU1 D   2      18.311   2.915 -48.8150  0.00  0.00     0.000 O
ATOM     29   O  GU1 D   2      19.979  -0.349 -48.5080  0.00  0.00     0.000 O
ATOM     30   C  GU1 D   2      19.580  -1.318 -49.4680  0.00  0.00     0.000 C
ATOM     31   C  GU1 D   2      22.961   0.551 -48.2830  0.00  0.00     0.000 C
ATOM     32   O  GU1 D   2      22.117   1.382 -49.0770  0.00  0.00     0.000 O
BRANCH 27 33
ATOM     33   C  GU1 D   2      19.040   5.168 -48.6640  0.00  0.00     0.000 C
ATOM     34   O  GU1 D   2      19.131   6.039 -47.8230  0.00  0.00     0.000 OA
ATOM     35   O  GU1 D   2      18.728   5.434 -49.8140  0.00  0.00     0.000 O
ENDBRANCH 27 33
BRANCH 23 36
ATOM     36  O4  GU6 D   3      17.211   1.105 -48.9250  0.00  0.00     0.000 O
BRANCH 36 40
ATOM     37  C1  GU6 D   3      13.736   0.623 -51.0200  0.00  0.00     0.000 C
ATOM     38  C2  GU6 D   3      13.603   0.342 -49.5280  0.00  0.00     0.000 C
ATOM     39  C3  GU6 D   3      14.846   0.805 -48.8140  0.00  0.00     0.000 C
ATOM     40  C4  GU6 D   3      15.994   1.207 -49.6350  0.00  0.00     0.000 C
ATOM     41  C5  GU6 D   3      16.104   0.264 -50.8780  0.00  0.00     0.000 C
ATOM     42  O5  GU6 D   3      14.867  -0.078 -51.5140  0.00  0.00     0.000 O
BRANCH 38 43
ATOM     43   O  GU6 D   3      12.468   0.998 -48.9980  0.00  0.00     0.000 O
ATOM     44   S  GU6 D   3      11.198   0.158 -48.9980  0.00  0.00     0.000 S
ATOM     45   O  GU6 D   3      10.596   0.220 -50.3420  0.00  0.00     0.000 OA
ATOM     46   O  GU6 D   3      11.556  -1.238 -48.6860  0.00  0.00     0.000 O
ATOM     47   O  GU6 D   3      10.288   0.680 -47.9840  0.00  0.00     0.000 OA
ENDBRANCH 38 43
BRANCH 39 48
ATOM     48   O  GU6 D   3      14.831   1.065 -47.4240  0.00  0.00     0.000 O
ATOM     49   S  GU6 D   3      14.936   0.098 -46.2440  0.00  0.00     0.000 S
ATOM     50   O  GU6 D   3      16.153  -0.713 -46.3620  0.00  0.00     0.000 OA
ATOM     51   O  GU6 D   3      15.006   0.996 -45.0840  0.00  0.00     0.000 OA
ATOM     52   O  GU6 D   3      13.743  -0.777 -46.2340  0.00  0.00     0.000 O
ENDBRANCH 39 48
BRANCH 41 53
ATOM     53   C  GU6 D   3      17.334  -0.326 -51.5140  0.00  0.00     0.000 C
ATOM     54   O  GU6 D   3      17.675   0.770 -52.3230  0.00  0.00     0.000 O
ATOM     55   S  GU6 D   3      18.843   0.672 -53.3130  0.00  0.00     0.000 S
ATOM     56   O  GU6 D   3      18.451  -0.321 -54.3400  0.00  0.00     0.000 O
ATOM     57   O  GU6 D   3      19.052   1.994 -53.9220  0.00  0.00     0.000 OA
ATOM     58   O  GU6 D   3      20.026   0.213 -52.5530  0.00  0.00     0.000 OA
ENDBRANCH 41 53
BRANCH 37 59
ATOM     59  O4  Z9K D   4      13.752   1.937 -51.6170  0.00  0.00     0.000 O
BRANCH 59 63
ATOM     60  C1  Z9K D   4      12.859   5.415 -53.2160  0.00  0.00     0.000 C
ATOM     61  C2  Z9K D   4      11.811   5.332 -52.0720  0.00  0.00     0.000 C
ATOM     62  C3  Z9K D   4      12.293   4.018 -51.3170  0.00  0.00     0.000 C
ATOM     63  C4  Z9K D   4      12.664   2.739 -52.1610  0.00  0.00     0.000 C
ATOM     64  C5  Z9K D   4      13.132   2.994 -53.6020  0.00  0.00     0.000 C
ATOM     65  O5  Z9K D   4      13.803   4.278 -53.5000  0.00  0.00     0.000 O
ATOM     66   O  Z9K D   4      11.354   3.550 -50.3320  0.00  0.00     0.000 O
ATOM     67   C  Z9K D   4      11.485   4.164 -49.0600  0.00  0.00     0.000 C
BRANCH 61 68
ATOM     68   O  Z9K D   4      12.066   6.401 -51.2030  0.00  0.00     0.000 O
ATOM     69   O  Z9K D   4       9.564   5.877 -51.3170  0.00  0.00     0.000 OA
ATOM     70   S  Z9K D   4      10.592   6.769 -51.7630  0.00  0.00     0.000 S
ATOM     71   O  Z9K D   4      10.716   7.309 -53.0820  0.00  0.00     0.000 OA
ATOM     72   O  Z9K D   4      10.823   7.800 -50.8040  0.00  0.00     0.000 OA
ENDBRANCH 61 68
BRANCH 64 73
ATOM     73   C  Z9K D   4      13.923   1.785 -54.1450  0.00  0.00     0.000 C
ATOM     74   O  Z9K D   4      13.335   0.719 -54.4890  0.00  0.00     0.000 O
ATOM     75   O  Z9K D   4      15.171   1.814 -54.2720  0.00  0.00     0.000 OA
ENDBRANCH 64 73
BRANCH 60 76
ATOM     76  O4  Z9L D   5      12.647   5.734 -54.6020  0.00  0.00     0.000 O
BRANCH 76 80
ATOM     77  C1  Z9L D   5      14.603   7.461 -57.6290  0.00  0.00     0.000 C
ATOM     78  C2  Z9L D   5      13.944   6.116 -58.2020  0.00  0.00     0.000 C
ATOM     79  C3  Z9L D   5      12.765   5.639 -57.0870  0.00  0.00     0.000 C
ATOM     80  C4  Z9L D   5      13.550   5.908 -55.6630  0.00  0.00     0.000 C
ATOM     81  C5  Z9L D   5      14.416   7.171 -55.1590  0.00  0.00     0.000 C
ATOM     82  O5  Z9L D   5      15.209   7.590 -56.2800  0.00  0.00     0.000 O
ATOM     83   C  Z9L D   5      14.130   9.828 -57.3700  0.00  0.00     0.000 C
ATOM     84   C  Z9L D   5      14.130   9.828 -57.3700  0.00  0.00     0.000 C
BRANCH 78 85
ATOM     85   O  Z9L D   5      13.329   6.418 -59.4140  0.00  0.00     0.000 O
ATOM     86   O  Z9L D   5      13.939   5.824 -61.1420  0.00  0.00     0.000 OA
ATOM     87   S  Z9L D   5      14.492   5.415 -59.8870  0.00  0.00     0.000 S
ATOM     88   O  Z9L D   5      14.143   4.021 -59.7620  0.00  0.00     0.000 OA
ATOM     89   O  Z9L D   5      15.817   5.930 -59.8760  0.00  0.00     0.000 OA
ENDBRANCH 78 85
BRANCH 79 90
ATOM     90   O  Z9L D   5      12.599   4.257 -57.0840  0.00  0.00     0.000 O
ATOM     91   S  Z9L D   5      11.108   4.705 -57.4200  0.00  0.00     0.000 S
ATOM     92   O  Z9L D   5      10.790   5.545 -58.5450  0.00  0.00     0.000 OA
ATOM     93   O  Z9L D   5      10.345   4.782 -56.1990  0.00  0.00     0.000 O
ATOM     94   O  Z9L D   5      11.045   3.353 -57.8720  0.00  0.00     0.000 OA
ENDBRANCH 79 90
BRANCH 81 95
ATOM     95   C  Z9L D   5      15.154   7.048 -53.6580  0.00  0.00     0.000 C
ATOM     96   S  Z9L D   5      16.815   6.504 -52.7030  0.00  0.00     0.000 S
ATOM     97   O  Z9L D   5      16.011   5.977 -53.9500  0.00  0.00     0.000 O
ATOM     98   O  Z9L D   5      16.042   6.164 -51.5370  0.00  0.00     0.000 OA
ATOM     99   O  Z9L D   5      17.410   7.789 -52.8490  0.00  0.00     0.000 OA
ATOM    100   O  Z9L D   5      17.650   5.377 -53.0410  0.00  0.00     0.000 O
ENDBRANCH 81 95
ENDBRANCH 76 80
ENDBRANCH 60 76
ENDBRANCH 59 63
ENDBRANCH 37 59
ENDBRANCH 36 40
ENDBRANCH 23 36
ENDBRANCH 22 26
ENDBRANCH 1 22
TORSDOF 19
ENDMDL
MODEL 85
REMARK VINA RESULT:      -5.3     37.476     44.296
ROOT
ATOM      1  C1  Z9H D   1      12.305   2.567 -46.9590  0.00  0.00     0.000 C
ATOM      2  C2  Z9H D   1      13.509   1.876 -47.6430  0.00  0.00     0.000 C
ATOM      3  C3  Z9H D   1      13.249   0.424 -47.1360  0.00  0.00     0.000 C
ATOM      4  C4  Z9H D   1      13.014   0.282 -45.5760  0.00  0.00     0.000 C
ATOM      5  C5  Z9H D   1      12.030   1.213 -44.7610  0.00  0.00     0.000 C
ATOM      6  O5  Z9H D   1      12.103   2.444 -45.5240  0.00  0.00     0.000 O
ATOM      7   O  Z9H D   1      14.272  -0.475 -47.5690  0.00  0.00     0.000 O
ATOM      8   C  Z9H D   1      13.952  -1.258 -48.7310  0.00  0.00     0.000 C
ATOM      9   O  Z9H D   1      12.586  -1.069 -45.3690  0.00  0.00     0.000 O
ATOM     10   C  Z9H D   1      13.599  -1.977 -44.9270  0.00  0.00     0.000 C
ENDROOT
BRANCH 2 11
ATOM     11   O  Z9H D   1      13.116   1.869 -48.9900  0.00  0.00     0.000 O
ATOM     12   O  Z9H D   1      14.003   2.816 -50.3590  0.00  0.00     0.000 OA
ATOM     13   S  Z9H D   1      14.420   2.776 -48.9970  0.00  0.00     0.000 S
ATOM     14   O  Z9H D   1      15.557   1.933 -48.7630  0.00  0.00     0.000 OA
ATOM     15   O  Z9H D   1      14.186   4.052 -48.3610  0.00  0.00     0.000 O
ENDBRANCH 2 11
BRANCH 5 16
ATOM     16   C  Z9H D   1      12.254   1.202 -43.1030  0.00  0.00     0.000 C
ATOM     17   S  Z9H D   1      13.204   2.108 -41.5810  0.00  0.00     0.000 S
ATOM     18   O  Z9H D   1      12.451   2.584 -42.9270  0.00  0.00     0.000 O
ATOM     19   O  Z9H D   1      14.430   1.395 -41.7960  0.00  0.00     0.000 O
ATOM     20   O  Z9H D   1      12.253   1.741 -40.5900  0.00  0.00     0.000 OA
ATOM     21   O  Z9H D   1      13.417   3.522 -41.4800  0.00  0.00     0.000 OA
ENDBRANCH 5 16
BRANCH 1 22
ATOM     22  O4  GU1 D   2      10.984   2.140 -47.4540  0.00  0.00     0.000 O
BRANCH 22 26
ATOM     23  C1  GU1 D   2       7.190   3.394 -48.4550  0.00  0.00     0.000 C
ATOM     24  C2  GU1 D   2       8.299   4.379 -48.7930  0.00  0.00     0.000 C
ATOM     25  C3  GU1 D   2       9.623   3.673 -48.7430  0.00  0.00     0.000 C
ATOM     26  C4  GU1 D   2       9.808   2.958 -47.4130  0.00  0.00     0.000 C
ATOM     27  C5  GU1 D   2       8.593   2.074 -47.1190  0.00  0.00     0.000 C
ATOM     28  O5  GU1 D   2       7.395   2.844 -47.1590  0.00  0.00     0.000 O
ATOM     29   O  GU1 D   2       8.140   4.934 -50.0930  0.00  0.00     0.000 O
ATOM     30   C  GU1 D   2       7.501   6.203 -50.1020  0.00  0.00     0.000 C
ATOM     31   C  GU1 D   2      11.253   4.705 -50.1820  0.00  0.00     0.000 C
ATOM     32   O  GU1 D   2      10.661   4.648 -48.8870  0.00  0.00     0.000 O
BRANCH 27 33
ATOM     33   C  GU1 D   2       8.693   1.444 -45.7500  0.00  0.00     0.000 C
ATOM     34   O  GU1 D   2       8.772   0.235 -45.6740  0.00  0.00     0.000 OA
ATOM     35   O  GU1 D   2       8.698   2.139 -44.7460  0.00  0.00     0.000 O
ENDBRANCH 27 33
BRANCH 23 36
ATOM     36  O4  GU6 D   3       5.855   3.873 -48.1950  0.00  0.00     0.000 O
BRANCH 36 40
ATOM     37  C1  GU6 D   3       2.000   5.162 -48.6030  0.00  0.00     0.000 C
ATOM     38  C2  GU6 D   3       2.665   5.602 -47.3050  0.00  0.00     0.000 C
ATOM     39  C3  GU6 D   3       4.143   5.316 -47.3720  0.00  0.00     0.000 C
ATOM     40  C4  GU6 D   3       4.630   4.508 -48.4960  0.00  0.00     0.000 C
ATOM     41  C5  GU6 D   3       3.593   3.381 -48.8170  0.00  0.00     0.000 C
ATOM     42  O5  GU6 D   3       2.215   3.770 -48.7720  0.00  0.00     0.000 O
BRANCH 38 43
ATOM     43   O  GU6 D   3       2.450   6.982 -47.0790  0.00  0.00     0.000 O
ATOM     44   S  GU6 D   3       1.274   7.293 -46.1620  0.00  0.00     0.000 S
ATOM     45   O  GU6 D   3       0.035   7.238 -46.9560  0.00  0.00     0.000 OA
ATOM     46   O  GU6 D   3       1.222   6.273 -45.1000  0.00  0.00     0.000 O
ATOM     47   O  GU6 D   3       1.472   8.615 -45.5760  0.00  0.00     0.000 OA
ENDBRANCH 38 43
BRANCH 39 48
ATOM     48   O  GU6 D   3       5.053   5.990 -46.5240  0.00  0.00     0.000 O
ATOM     49   S  GU6 D   3       5.388   5.745 -45.0540  0.00  0.00     0.000 S
ATOM     50   O  GU6 D   3       5.804   4.351 -44.8560  0.00  0.00     0.000 OA
ATOM     51   O  GU6 D   3       6.502   6.671 -44.8070  0.00  0.00     0.000 OA
ATOM     52   O  GU6 D   3       4.192   6.038 -44.2330  0.00  0.00     0.000 O
ENDBRANCH 39 48
BRANCH 41 53
ATOM     53   C  GU6 D   3       3.840   1.943 -49.1850  0.00  0.00     0.000 C
ATOM     54   O  GU6 D   3       4.275   1.497 -47.9260  0.00  0.00     0.000 O
ATOM     55   S  GU6 D   3       4.786   0.062 -47.7430  0.00  0.00     0.000 S
ATOM     56   O  GU6 D   3       6.039  -0.049 -48.5270  0.00  0.00     0.000 O
ATOM     57   O  GU6 D   3       5.046  -0.165 -46.3140  0.00  0.00     0.000 OA
ATOM     58   O  GU6 D   3       3.745  -0.846 -48.2740  0.00  0.00     0.000 OA
ENDBRANCH 41 53
BRANCH 37 59
ATOM     59  O4  Z9K D   4       2.199   5.786 -49.8890  0.00  0.00     0.000 O
BRANCH 59 63
ATOM     60  C1  Z9K D   4      -0.105   8.964 -50.0930  0.00  0.00     0.000 C
ATOM     61  C2  Z9K D   4      -1.106   7.841 -50.4800  0.00  0.00     0.000 C
ATOM     62  C3  Z9K D   4      -0.222   6.545 -50.2170  0.00  0.00     0.000 C
ATOM     63  C4  Z9K D   4       1.264   6.511 -50.7400  0.00  0.00     0.000 C
ATOM     64  C5  Z9K D   4       1.955   7.875 -50.9000  0.00  0.00     0.000 C
ATOM     65  O5  Z9K D   4       1.349   8.668 -49.8450  0.00  0.00     0.000 O
ATOM     66   O  Z9K D   4      -0.819   5.337 -50.7220  0.00  0.00     0.000 O
ATOM     67   C  Z9K D   4      -1.738   4.722 -49.8340  0.00  0.00     0.000 C
BRANCH 61 68
ATOM     68   O  Z9K D   4      -2.113   7.834 -49.5050  0.00  0.00     0.000 O
ATOM     69   O  Z9K D   4      -3.037   7.163 -51.7950  0.00  0.00     0.000 OA
ATOM     70   S  Z9K D   4      -2.942   8.226 -50.8400  0.00  0.00     0.000 S
ATOM     71   O  Z9K D   4      -2.712   9.605 -51.1440  0.00  0.00     0.000 OA
ATOM     72   O  Z9K D   4      -3.973   8.121 -49.8580  0.00  0.00     0.000 OA
ENDBRANCH 61 68
BRANCH 64 73
ATOM     73   C  Z9K D   4       3.489   7.714 -50.9190  0.00  0.00     0.000 C
ATOM     74   O  Z9K D   4       4.084   7.213 -51.9180  0.00  0.00     0.000 O
ATOM     75   O  Z9K D   4       4.205   8.078 -49.9540  0.00  0.00     0.000 OA
ENDBRANCH 64 73
BRANCH 60 76
ATOM     76  O4  Z9L D   5       0.146  10.210 -50.7660  0.00  0.00     0.000 O
BRANCH 76 80
ATOM     77  C1  Z9L D   5       0.628  14.139 -50.2180  0.00  0.00     0.000 C
ATOM     78  C2  Z9L D   5       2.008  13.574 -50.8080  0.00  0.00     0.000 C
ATOM     79  C3  Z9L D   5       1.670  12.051 -51.4610  0.00  0.00     0.000 C
ATOM     80  C4  Z9L D   5       0.680  11.423 -50.3030  0.00  0.00     0.000 C
ATOM     81  C5  Z9L D   5      -0.580  12.068 -49.5310  0.00  0.00     0.000 C
ATOM     82  O5  Z9L D   5      -0.218  13.424 -49.2280  0.00  0.00     0.000 O
ATOM     83   C  Z9L D   5      -1.477  15.104 -50.9470  0.00  0.00     0.000 C
ATOM     84   C  Z9L D   5      -1.477  15.104 -50.9470  0.00  0.00     0.000 C
BRANCH 78 85
ATOM     85   O  Z9L D   5       2.423  14.426 -51.8270  0.00  0.00     0.000 O
ATOM     86   O  Z9L D   5       3.932  15.619 -51.7270  0.00  0.00     0.000 OA
ATOM     87   S  Z9L D   5       3.577  14.653 -50.7320  0.00  0.00     0.000 S
ATOM     88   O  Z9L D   5       4.626  13.665 -50.7790  0.00  0.00     0.000 OA
ATOM     89   O  Z9L D   5       3.219  15.413 -49.5840  0.00  0.00     0.000 OA
ENDBRANCH 78 85
BRANCH 79 90
ATOM     90   O  Z9L D   5       2.780  11.214 -51.3960  0.00  0.00     0.000 O
ATOM     91   S  Z9L D   5       2.509  11.177 -52.9650  0.00  0.00     0.000 S
ATOM     92   O  Z9L D   5       2.455  12.371 -53.7660  0.00  0.00     0.000 OA
ATOM     93   O  Z9L D   5       1.687  10.035 -53.2810  0.00  0.00     0.000 O
ATOM     94   O  Z9L D   5       3.865  10.732 -52.9600  0.00  0.00     0.000 OA
ENDBRANCH 79 90
BRANCH 81 95
ATOM     95   C  Z9L D   5      -1.299  11.146 -48.3280  0.00  0.00     0.000 C
ATOM     96   S  Z9L D   5      -2.639  11.155 -46.8550  0.00  0.00     0.000 S
ATOM     97   O  Z9L D   5      -1.605  12.187 -47.4400  0.00  0.00     0.000 O
ATOM     98   O  Z9L D   5      -1.876  10.160 -46.1450  0.00  0.00     0.000 OA
ATOM     99   O  Z9L D   5      -3.707  10.789 -47.7220  0.00  0.00     0.000 OA
ATOM    100   O  Z9L D   5      -2.898  12.255 -45.9590  0.00  0.00     0.000 O
ENDBRANCH 81 95
ENDBRANCH 76 80
ENDBRANCH 60 76
ENDBRANCH 59 63
ENDBRANCH 37 59
ENDBRANCH 36 40
ENDBRANCH 23 36
ENDBRANCH 22 26
ENDBRANCH 1 22
TORSDOF 19
ENDMDL
MODEL 86
REMARK VINA RESULT:      -5.2     29.284     36.093
ROOT
ATOM      1  C1  Z9H D   1      13.518  43.897 -33.1610  0.00  0.00     0.000 C
ATOM      2  C2  Z9H D   1      14.236  45.146 -33.7250  0.00  0.00     0.000 C
ATOM      3  C3  Z9H D   1      13.432  45.283 -35.0540  0.00  0.00     0.000 C
ATOM      4  C4  Z9H D   1      13.314  43.960 -35.9170  0.00  0.00     0.000 C
ATOM      5  C5  Z9H D   1      12.909  42.561 -35.3020  0.00  0.00     0.000 C
ATOM      6  O5  Z9H D   1      13.425  42.680 -33.9530  0.00  0.00     0.000 O
ATOM      7   O  Z9H D   1      13.922  46.358 -35.8570  0.00  0.00     0.000 O
ATOM      8   C  Z9H D   1      13.185  47.588 -35.7580  0.00  0.00     0.000 C
ATOM      9   O  Z9H D   1      12.372  44.254 -36.9540  0.00  0.00     0.000 O
ATOM     10   C  Z9H D   1      12.937  44.593 -38.2240  0.00  0.00     0.000 C
ENDROOT
BRANCH 2 11
ATOM     11   O  Z9H D   1      13.746  46.165 -32.8930  0.00  0.00     0.000 O
ATOM     12   O  Z9H D   1      14.805  47.141 -31.6760  0.00  0.00     0.000 OA
ATOM     13   S  Z9H D   1      15.299  46.138 -32.5590  0.00  0.00     0.000 S
ATOM     14   O  Z9H D   1      16.012  46.660 -33.6890  0.00  0.00     0.000 OA
ATOM     15   O  Z9H D   1      15.665  44.952 -31.8200  0.00  0.00     0.000 O
ENDBRANCH 2 11
BRANCH 5 16
ATOM     16   C  Z9H D   1      13.270  41.236 -36.2590  0.00  0.00     0.000 C
ATOM     17   S  Z9H D   1      13.575  39.249 -36.2430  0.00  0.00     0.000 S
ATOM     18   O  Z9H D   1      12.549  40.271 -35.5300  0.00  0.00     0.000 O
ATOM     19   O  Z9H D   1      14.939  39.366 -35.8110  0.00  0.00     0.000 O
ATOM     20   O  Z9H D   1      13.202  39.044 -37.5980  0.00  0.00     0.000 OA
ATOM     21   O  Z9H D   1      12.837  38.318 -35.4400  0.00  0.00     0.000 OA
ENDBRANCH 5 16
BRANCH 1 22
ATOM     22  O4  GU1 D   2      12.100  44.100 -32.8170  0.00  0.00     0.000 O
BRANCH 22 26
ATOM     23  C1  GU1 D   2       9.118  43.183 -30.1270  0.00  0.00     0.000 C
ATOM     24  C2  GU1 D   2      10.504  43.331 -29.5190  0.00  0.00     0.000 C
ATOM     25  C3  GU1 D   2      11.405  44.026 -30.4980  0.00  0.00     0.000 C
ATOM     26  C4  GU1 D   2      11.388  43.323 -31.8470  0.00  0.00     0.000 C
ATOM     27  C5  GU1 D   2       9.944  43.130 -32.3200  0.00  0.00     0.000 C
ATOM     28  O5  GU1 D   2       9.185  42.435 -31.3350  0.00  0.00     0.000 O
ATOM     29   O  GU1 D   2      10.480  44.094 -28.3180  0.00  0.00     0.000 O
ATOM     30   C  GU1 D   2      10.439  43.306 -27.1370  0.00  0.00     0.000 C
ATOM     31   C  GU1 D   2      13.184  45.220 -29.4020  0.00  0.00     0.000 C
ATOM     32   O  GU1 D   2      12.740  43.997 -29.9840  0.00  0.00     0.000 O
BRANCH 27 33
ATOM     33   C  GU1 D   2       9.889  42.328 -33.5980  0.00  0.00     0.000 C
ATOM     34   O  GU1 D   2       9.539  42.887 -34.6170  0.00  0.00     0.000 OA
ATOM     35   O  GU1 D   2      10.195  41.146 -33.6030  0.00  0.00     0.000 O
ENDBRANCH 27 33
BRANCH 23 36
ATOM     36  O4  GU6 D   3       8.139  42.336 -29.4920  0.00  0.00     0.000 O
BRANCH 36 40
ATOM     37  C1  GU6 D   3       4.780  40.265 -28.4340  0.00  0.00     0.000 C
ATOM     38  C2  GU6 D   3       5.471  40.961 -27.2680  0.00  0.00     0.000 C
ATOM     39  C3  GU6 D   3       6.520  41.905 -27.7930  0.00  0.00     0.000 C
ATOM     40  C4  GU6 D   3       6.846  41.835 -29.2220  0.00  0.00     0.000 C
ATOM     41  C5  GU6 D   3       6.821  40.343 -29.6910  0.00  0.00     0.000 C
ATOM     42  O5  GU6 D   3       5.754  39.542 -29.1710  0.00  0.00     0.000 O
BRANCH 38 43
ATOM     43   O  GU6 D   3       4.531  41.671 -26.4850  0.00  0.00     0.000 O
ATOM     44   S  GU6 D   3       4.576  41.345 -24.9970  0.00  0.00     0.000 S
ATOM     45   O  GU6 D   3       3.819  40.103 -24.7670  0.00  0.00     0.000 OA
ATOM     46   O  GU6 D   3       5.982  41.142 -24.6030  0.00  0.00     0.000 O
ATOM     47   O  GU6 D   3       4.004  42.462 -24.2530  0.00  0.00     0.000 OA
ENDBRANCH 38 43
BRANCH 39 48
ATOM     48   O  GU6 D   3       7.003  42.970 -26.9970  0.00  0.00     0.000 O
ATOM     49   S  GU6 D   3       6.620  44.450 -27.0010  0.00  0.00     0.000 S
ATOM     50   O  GU6 D   3       5.172  44.597 -26.8150  0.00  0.00     0.000 OA
ATOM     51   O  GU6 D   3       7.361  44.989 -25.8530  0.00  0.00     0.000 OA
ATOM     52   O  GU6 D   3       7.028  45.047 -28.2930  0.00  0.00     0.000 O
ENDBRANCH 39 48
BRANCH 41 53
ATOM     53   C  GU6 D   3       7.756  39.630 -30.6300  0.00  0.00     0.000 C
ATOM     54   O  GU6 D   3       6.786  38.973 -31.4040  0.00  0.00     0.000 O
ATOM     55   S  GU6 D   3       7.203  37.974 -32.4910  0.00  0.00     0.000 S
ATOM     56   O  GU6 D   3       7.832  36.826 -31.7980  0.00  0.00     0.000 O
ATOM     57   O  GU6 D   3       6.000  37.545 -33.2190  0.00  0.00     0.000 OA
ATOM     58   O  GU6 D   3       8.174  38.662 -33.3700  0.00  0.00     0.000 OA
ENDBRANCH 41 53
BRANCH 37 59
ATOM     59  O4  Z9K D   4       3.912  40.912 -29.3890  0.00  0.00     0.000 O
BRANCH 59 63
ATOM     60  C1  Z9K D   4       0.252  42.241 -29.9210  0.00  0.00     0.000 C
ATOM     61  C2  Z9K D   4      -0.014  40.945 -29.1060  0.00  0.00     0.000 C
ATOM     62  C3  Z9K D   4       1.471  40.512 -28.7360  0.00  0.00     0.000 C
ATOM     63  C4  Z9K D   4       2.582  40.544 -29.8550  0.00  0.00     0.000 C
ATOM     64  C5  Z9K D   4       2.351  41.535 -31.0060  0.00  0.00     0.000 C
ATOM     65  O5  Z9K D   4       1.640  42.622 -30.3580  0.00  0.00     0.000 O
ATOM     66   O  Z9K D   4       1.554  39.191 -28.1710  0.00  0.00     0.000 O
ATOM     67   C  Z9K D   4       1.336  39.139 -26.7710  0.00  0.00     0.000 C
BRANCH 61 68
ATOM     68   O  Z9K D   4      -0.622  41.333 -27.9050  0.00  0.00     0.000 O
ATOM     69   O  Z9K D   4      -1.497  39.062 -28.6950  0.00  0.00     0.000 OA
ATOM     70   S  Z9K D   4      -1.792  40.460 -28.6060  0.00  0.00     0.000 S
ATOM     71   O  Z9K D   4      -2.416  41.250 -29.6240  0.00  0.00     0.000 OA
ATOM     72   O  Z9K D   4      -2.365  40.780 -27.3390  0.00  0.00     0.000 OA
ENDBRANCH 61 68
BRANCH 64 73
ATOM     73   C  Z9K D   4       3.674  41.844 -31.7370  0.00  0.00     0.000 C
ATOM     74   O  Z9K D   4       4.242  40.976 -32.4620  0.00  0.00     0.000 O
ATOM     75   O  Z9K D   4       4.233  42.965 -31.6480  0.00  0.00     0.000 OA
ENDBRANCH 64 73
BRANCH 60 76
ATOM     76  O4  Z9L D   5      -0.374  42.675 -31.1410  0.00  0.00     0.000 O
BRANCH 76 80
ATOM     77  C1  Z9L D   5      -1.648  45.927 -33.0830  0.00  0.00     0.000 C
ATOM     78  C2  Z9L D   5      -0.560  45.216 -34.0220  0.00  0.00     0.000 C
ATOM     79  C3  Z9L D   5      -0.368  43.641 -33.4350  0.00  0.00     0.000 C
ATOM     80  C4  Z9L D   5      -0.347  43.910 -31.8100  0.00  0.00     0.000 C
ATOM     81  C5  Z9L D   5      -1.303  44.814 -30.8780  0.00  0.00     0.000 C
ATOM     82  O5  Z9L D   5      -1.544  46.028 -31.6050  0.00  0.00     0.000 O
ATOM     83   C  Z9L D   5      -4.040  45.970 -32.6690  0.00  0.00     0.000 C
ATOM     84   C  Z9L D   5      -4.040  45.970 -32.6690  0.00  0.00     0.000 C
BRANCH 78 85
ATOM     85   O  Z9L D   5      -1.074  45.162 -35.3140  0.00  0.00     0.000 O
ATOM     86   O  Z9L D   5      -0.403  46.166 -36.8150  0.00  0.00     0.000 OA
ATOM     87   S  Z9L D   5       0.199  46.122 -35.5170  0.00  0.00     0.000 S
ATOM     88   O  Z9L D   5       1.439  45.411 -35.7030  0.00  0.00     0.000 OA
ATOM     89   O  Z9L D   5       0.083  47.444 -35.0060  0.00  0.00     0.000 OA
ENDBRANCH 78 85
BRANCH 79 90
ATOM     90   O  Z9L D   5       0.916  43.162 -33.6800  0.00  0.00     0.000 O
ATOM     91   S  Z9L D   5       0.065  42.019 -34.3910  0.00  0.00     0.000 S
ATOM     92   O  Z9L D   5      -0.892  42.304 -35.4280  0.00  0.00     0.000 OA
ATOM     93   O  Z9L D   5      -0.145  40.934 -33.4660  0.00  0.00     0.000 O
ATOM     94   O  Z9L D   5       1.323  41.793 -35.0270  0.00  0.00     0.000 OA
ENDBRANCH 79 90
BRANCH 81 95
ATOM     95   C  Z9L D   5      -0.914  44.920 -29.2500  0.00  0.00     0.000 C
ATOM     96   S  Z9L D   5      -0.044  46.046 -27.8560  0.00  0.00     0.000 S
ATOM     97   O  Z9L D   5       0.226  45.727 -29.3750  0.00  0.00     0.000 O
ATOM     98   O  Z9L D   5       0.314  44.864 -27.1150  0.00  0.00     0.000 OA
ATOM     99   O  Z9L D   5      -1.243  46.760 -27.5780  0.00  0.00     0.000 OA
ATOM    100   O  Z9L D   5       1.142  46.845 -28.0400  0.00  0.00     0.000 O
ENDBRANCH 81 95
ENDBRANCH 76 80
ENDBRANCH 60 76
ENDBRANCH 59 63
ENDBRANCH 37 59
ENDBRANCH 36 40
ENDBRANCH 23 36
ENDBRANCH 22 26
ENDBRANCH 1 22
TORSDOF 19
ENDMDL
MODEL 87
REMARK VINA RESULT:      -5.2     32.587     40.397
ROOT
ATOM      1  C1  Z9H D   1       5.267  44.304 -24.2330  0.00  0.00     0.000 C
ATOM      2  C2  Z9H D   1       5.717  44.108 -22.7660  0.00  0.00     0.000 C
ATOM      3  C3  Z9H D   1       5.013  45.355 -22.1490  0.00  0.00     0.000 C
ATOM      4  C4  Z9H D   1       5.277  46.725 -22.9000  0.00  0.00     0.000 C
ATOM      5  C5  Z9H D   1       5.161  46.887 -24.4680  0.00  0.00     0.000 C
ATOM      6  O5  Z9H D   1       5.525  45.559 -24.9220  0.00  0.00     0.000 O
ATOM      7   O  Z9H D   1       5.303  45.488 -20.7560  0.00  0.00     0.000 O
ATOM      8   C  Z9H D   1       4.294  44.983 -19.8660  0.00  0.00     0.000 C
ATOM      9   O  Z9H D   1       4.379  47.671 -22.3100  0.00  0.00     0.000 O
ATOM     10   C  Z9H D   1       4.951  48.529 -21.3170  0.00  0.00     0.000 C
ENDROOT
BRANCH 2 11
ATOM     11   O  Z9H D   1       4.937  43.012 -22.3650  0.00  0.00     0.000 O
ATOM     12   O  Z9H D   1       5.637  41.313 -21.9380  0.00  0.00     0.000 OA
ATOM     13   S  Z9H D   1       6.420  42.446 -22.2990  0.00  0.00     0.000 S
ATOM     14   O  Z9H D   1       7.091  43.065 -21.1920  0.00  0.00     0.000 OA
ATOM     15   O  Z9H D   1       6.983  42.270 -23.6180  0.00  0.00     0.000 O
ENDBRANCH 2 11
BRANCH 5 16
ATOM     16   C  Z9H D   1       5.897  48.253 -25.0950  0.00  0.00     0.000 C
ATOM     17   S  Z9H D   1       7.199  49.732 -24.6970  0.00  0.00     0.000 S
ATOM     18   O  Z9H D   1       7.120  48.145 -24.4080  0.00  0.00     0.000 O
ATOM     19   O  Z9H D   1       6.233  50.522 -23.9900  0.00  0.00     0.000 O
ATOM     20   O  Z9H D   1       7.556  49.966 -26.0530  0.00  0.00     0.000 OA
ATOM     21   O  Z9H D   1       8.411  49.569 -23.9480  0.00  0.00     0.000 OA
ENDBRANCH 5 16
BRANCH 1 22
ATOM     22  O4  GU1 D   2       3.817  44.168 -24.4590  0.00  0.00     0.000 O
BRANCH 22 26
ATOM     23  C1  GU1 D   2       0.915  42.798 -27.0430  0.00  0.00     0.000 C
ATOM     24  C2  GU1 D   2       2.164  41.933 -26.9670  0.00  0.00     0.000 C
ATOM     25  C3  GU1 D   2       2.955  42.307 -25.7470  0.00  0.00     0.000 C
ATOM     26  C4  GU1 D   2       3.230  43.803 -25.7140  0.00  0.00     0.000 C
ATOM     27  C5  GU1 D   2       1.923  44.581 -25.9010  0.00  0.00     0.000 C
ATOM     28  O5  GU1 D   2       1.270  44.175 -27.1010  0.00  0.00     0.000 O
ATOM     29   O  GU1 D   2       1.849  40.548 -26.8850  0.00  0.00     0.000 O
ATOM     30   C  GU1 D   2       1.893  39.874 -28.1350  0.00  0.00     0.000 C
ATOM     31   C  GU1 D   2       4.287  40.474 -24.9350  0.00  0.00     0.000 C
ATOM     32   O  GU1 D   2       4.206  41.613 -25.7880  0.00  0.00     0.000 O
BRANCH 27 33
ATOM     33   C  GU1 D   2       2.180  46.066 -25.9940  0.00  0.00     0.000 C
ATOM     34   O  GU1 D   2       2.771  46.491 -26.9650  0.00  0.00     0.000 OA
ATOM     35   O  GU1 D   2       1.796  46.818 -25.1120  0.00  0.00     0.000 O
ENDBRANCH 27 33
BRANCH 23 36
ATOM     36  O4  GU6 D   3       0.117  42.808 -28.2430  0.00  0.00     0.000 O
BRANCH 36 40
ATOM     37  C1  GU6 D   3      -2.959  42.500 -30.9140  0.00  0.00     0.000 C
ATOM     38  C2  GU6 D   3      -1.577  42.388 -31.5460  0.00  0.00     0.000 C
ATOM     39  C3  GU6 D   3      -0.538  42.240 -30.4660  0.00  0.00     0.000 C
ATOM     40  C4  GU6 D   3      -0.965  42.448 -29.0770  0.00  0.00     0.000 C
ATOM     41  C5  GU6 D   3      -2.003  43.616 -29.0180  0.00  0.00     0.000 C
ATOM     42  O5  GU6 D   3      -2.978  43.639 -30.0670  0.00  0.00     0.000 O
BRANCH 38 43
ATOM     43   O  GU6 D   3      -1.521  41.282 -32.4260  0.00  0.00     0.000 O
ATOM     44   S  GU6 D   3      -1.806  41.621 -33.8830  0.00  0.00     0.000 S
ATOM     45   O  GU6 D   3      -3.266  41.686 -34.0710  0.00  0.00     0.000 OA
ATOM     46   O  GU6 D   3      -1.213  42.936 -34.1850  0.00  0.00     0.000 O
ATOM     47   O  GU6 D   3      -1.206  40.595 -34.7300  0.00  0.00     0.000 OA
ENDBRANCH 38 43
BRANCH 39 48
ATOM     48   O  GU6 D   3       0.736  41.697 -30.7530  0.00  0.00     0.000 O
ATOM     49   S  GU6 D   3       1.988  42.373 -31.3100  0.00  0.00     0.000 S
ATOM     50   O  GU6 D   3       2.358  43.520 -30.4730  0.00  0.00     0.000 OA
ATOM     51   O  GU6 D   3       3.001  41.312 -31.2340  0.00  0.00     0.000 OA
ATOM     52   O  GU6 D   3       1.715  42.822 -32.6930  0.00  0.00     0.000 O
ENDBRANCH 39 48
BRANCH 41 53
ATOM     53   C  GU6 D   3      -2.132  44.718 -28.0010  0.00  0.00     0.000 C
ATOM     54   O  GU6 D   3      -1.991  45.805 -28.8790  0.00  0.00     0.000 O
ATOM     55   S  GU6 D   3      -1.931  47.240 -28.3370  0.00  0.00     0.000 S
ATOM     56   O  GU6 D   3      -0.679  47.349 -27.5520  0.00  0.00     0.000 O
ATOM     57   O  GU6 D   3      -1.914  48.170 -29.4750  0.00  0.00     0.000 OA
ATOM     58   O  GU6 D   3      -3.118  47.433 -27.4740  0.00  0.00     0.000 OA
ENDBRANCH 41 53
BRANCH 37 59
ATOM     59  O4  Z9K D   4      -3.641  41.436 -30.2180  0.00  0.00     0.000 O
BRANCH 59 63
ATOM     60  C1  Z9K D   4      -6.634  39.201 -31.4400  0.00  0.00     0.000 C
ATOM     61  C2  Z9K D   4      -7.228  40.625 -31.6210  0.00  0.00     0.000 C
ATOM     62  C3  Z9K D   4      -5.956  41.525 -31.3020  0.00  0.00     0.000 C
ATOM     63  C4  Z9K D   4      -5.065  41.179 -30.0490  0.00  0.00     0.000 C
ATOM     64  C5  Z9K D   4      -5.084  39.713 -29.5920  0.00  0.00     0.000 C
ATOM     65  O5  Z9K D   4      -5.272  38.990 -30.8370  0.00  0.00     0.000 O
ATOM     66   O  Z9K D   4      -6.269  42.922 -31.1590  0.00  0.00     0.000 O
ATOM     67   C  Z9K D   4      -6.303  43.644 -32.3800  0.00  0.00     0.000 C
BRANCH 61 68
ATOM     68   O  Z9K D   4      -7.494  40.790 -32.9870  0.00  0.00     0.000 O
ATOM     69   O  Z9K D   4      -9.171  42.088 -31.5540  0.00  0.00     0.000 OA
ATOM     70   S  Z9K D   4      -8.975  40.908 -32.3400  0.00  0.00     0.000 S
ATOM     71   O  Z9K D   4      -9.446  39.597 -32.0120  0.00  0.00     0.000 OA
ATOM     72   O  Z9K D   4      -9.221  41.169 -33.7220  0.00  0.00     0.000 OA
ENDBRANCH 61 68
BRANCH 64 73
ATOM     73   C  Z9K D   4      -3.846  39.392 -28.7280  0.00  0.00     0.000 C
ATOM     74   O  Z9K D   4      -3.744  39.824 -27.5430  0.00  0.00     0.000 O
ATOM     75   O  Z9K D   4      -2.901  38.688 -29.1610  0.00  0.00     0.000 OA
ENDBRANCH 64 73
BRANCH 60 76
ATOM     76  O4  Z9L D   5      -7.224  38.062 -30.7910  0.00  0.00     0.000 O
BRANCH 76 80
ATOM     77  C1  Z9L D   5      -7.959  34.157 -31.2160  0.00  0.00     0.000 C
ATOM     78  C2  Z9L D   5      -7.030  34.321 -29.9200  0.00  0.00     0.000 C
ATOM     79  C3  Z9L D   5      -7.099  35.952 -29.4760  0.00  0.00     0.000 C
ATOM     80  C4  Z9L D   5      -6.998  36.685 -30.9480  0.00  0.00     0.000 C
ATOM     81  C5  Z9L D   5      -7.765  36.378 -32.3330  0.00  0.00     0.000 C
ATOM     82  O5  Z9L D   5      -7.808  34.949 -32.4630  0.00  0.00     0.000 O
ATOM     83   C  Z9L D   5     -10.298  34.057 -31.8570  0.00  0.00     0.000 C
ATOM     84   C  Z9L D   5     -10.298  34.057 -31.8570  0.00  0.00     0.000 C
BRANCH 78 85
ATOM     85   O  Z9L D   5      -7.572  33.547 -28.8990  0.00  0.00     0.000 O
ATOM     86   O  Z9L D   5      -6.919  31.819 -28.3540  0.00  0.00     0.000 OA
ATOM     87   S  Z9L D   5      -6.290  32.672 -29.3150  0.00  0.00     0.000 S
ATOM     88   O  Z9L D   5      -5.064  33.102 -28.6890  0.00  0.00     0.000 OA
ATOM     89   O  Z9L D   5      -6.376  31.971 -30.5500  0.00  0.00     0.000 OA
ENDBRANCH 78 85
BRANCH 79 90
ATOM     90   O  Z9L D   5      -5.922  36.359 -28.8540  0.00  0.00     0.000 O
ATOM     91   S  Z9L D   5      -6.974  36.765 -27.7280  0.00  0.00     0.000 S
ATOM     92   O  Z9L D   5      -7.894  35.819 -27.1550  0.00  0.00     0.000 OA
ATOM     93   O  Z9L D   5      -7.343  38.149 -27.8970  0.00  0.00     0.000 O
ATOM     94   O  Z9L D   5      -5.789  36.739 -26.9320  0.00  0.00     0.000 OA
ENDBRANCH 79 90
BRANCH 81 95
ATOM     95   C  Z9L D   5      -7.329  37.290 -33.6720  0.00  0.00     0.000 C
ATOM     96   S  Z9L D   5      -6.817  37.213 -35.5950  0.00  0.00     0.000 S
ATOM     97   O  Z9L D   5      -6.555  36.320 -34.3250  0.00  0.00     0.000 O
ATOM     98   O  Z9L D   5      -6.019  38.402 -35.4370  0.00  0.00     0.000 OA
ATOM     99   O  Z9L D   5      -8.170  37.282 -36.0360  0.00  0.00     0.000 OA
ATOM    100   O  Z9L D   5      -6.002  36.195 -36.2090  0.00  0.00     0.000 O
ENDBRANCH 81 95
ENDBRANCH 76 80
ENDBRANCH 60 76
ENDBRANCH 59 63
ENDBRANCH 37 59
ENDBRANCH 36 40
ENDBRANCH 23 36
ENDBRANCH 22 26
ENDBRANCH 1 22
TORSDOF 19
ENDMDL
MODEL 88
REMARK VINA RESULT:      -5.2     30.520     39.357
ROOT
ATOM      1  C1  Z9H D   1       8.343  41.548 -29.7370  0.00  0.00     0.000 C
ATOM      2  C2  Z9H D   1       9.616  42.427 -29.7960  0.00  0.00     0.000 C
ATOM      3  C3  Z9H D   1       9.474  42.925 -31.2670  0.00  0.00     0.000 C
ATOM      4  C4  Z9H D   1       9.222  41.792 -32.3460  0.00  0.00     0.000 C
ATOM      5  C5  Z9H D   1       8.146  40.649 -32.1640  0.00  0.00     0.000 C
ATOM      6  O5  Z9H D   1       8.125  40.501 -30.7220  0.00  0.00     0.000 O
ATOM      7   O  Z9H D   1      10.579  43.743 -31.6550  0.00  0.00     0.000 O
ATOM      8   C  Z9H D   1      10.351  45.161 -31.5820  0.00  0.00     0.000 C
ATOM      9   O  Z9H D   1       8.909  42.477 -33.5640  0.00  0.00     0.000 O
ATOM     10   C  Z9H D   1       9.990  42.609 -34.4930  0.00  0.00     0.000 C
ENDROOT
BRANCH 2 11
ATOM     11   O  Z9H D   1       9.250  43.525 -29.0020  0.00  0.00     0.000 O
ATOM     12   O  Z9H D   1      10.078  43.974 -27.3680  0.00  0.00     0.000 OA
ATOM     13   S  Z9H D   1      10.470  42.892 -28.2070  0.00  0.00     0.000 S
ATOM     14   O  Z9H D   1      11.672  43.141 -28.9510  0.00  0.00     0.000 OA
ATOM     15   O  Z9H D   1      10.115  41.629 -27.6000  0.00  0.00     0.000 O
ENDBRANCH 2 11
BRANCH 5 16
ATOM     16   C  Z9H D   1       8.338  39.327 -33.1720  0.00  0.00     0.000 C
ATOM     17   S  Z9H D   1       7.459  37.649 -33.8450  0.00  0.00     0.000 S
ATOM     18   O  Z9H D   1       6.987  39.160 -33.5300  0.00  0.00     0.000 O
ATOM     19   O  Z9H D   1       7.827  36.880 -32.6910  0.00  0.00     0.000 O
ATOM     20   O  Z9H D   1       8.175  37.604 -35.0720  0.00  0.00     0.000 OA
ATOM     21   O  Z9H D   1       6.064  37.526 -34.1490  0.00  0.00     0.000 OA
ENDBRANCH 5 16
BRANCH 1 22
ATOM     22  O4  GU1 D   2       7.074  42.289 -29.8480  0.00  0.00     0.000 O
BRANCH 22 26
ATOM     23  C1  GU1 D   2       3.220  42.667 -28.4430  0.00  0.00     0.000 C
ATOM     24  C2  GU1 D   2       4.272  42.428 -27.3700  0.00  0.00     0.000 C
ATOM     25  C3  GU1 D   2       5.634  42.690 -27.9430  0.00  0.00     0.000 C
ATOM     26  C4  GU1 D   2       5.852  41.888 -29.2170  0.00  0.00     0.000 C
ATOM     27  C5  GU1 D   2       4.688  42.118 -30.1870  0.00  0.00     0.000 C
ATOM     28  O5  GU1 D   2       3.447  41.811 -29.5570  0.00  0.00     0.000 O
ATOM     29   O  GU1 D   2       4.089  43.283 -26.2480  0.00  0.00     0.000 O
ATOM     30   C  GU1 D   2       3.377  42.681 -25.1760  0.00  0.00     0.000 C
ATOM     31   C  GU1 D   2       7.212  43.363 -26.2540  0.00  0.00     0.000 C
ATOM     32   O  GU1 D   2       6.614  42.291 -26.9780  0.00  0.00     0.000 O
BRANCH 27 33
ATOM     33   C  GU1 D   2       4.815  41.243 -31.4110  0.00  0.00     0.000 C
ATOM     34   O  GU1 D   2       4.959  41.777 -32.4910  0.00  0.00     0.000 OA
ATOM     35   O  GU1 D   2       4.778  40.026 -31.3100  0.00  0.00     0.000 O
ENDBRANCH 27 33
BRANCH 23 36
ATOM     36  O4  GU6 D   3       1.858  42.251 -28.2230  0.00  0.00     0.000 O
BRANCH 36 40
ATOM     37  C1  GU6 D   3      -1.659  42.381 -26.1470  0.00  0.00     0.000 C
ATOM     38  C2  GU6 D   3      -0.783  43.614 -25.9590  0.00  0.00     0.000 C
ATOM     39  C3  GU6 D   3       0.341  43.592 -26.9610  0.00  0.00     0.000 C
ATOM     40  C4  GU6 D   3       0.534  42.366 -27.7420  0.00  0.00     0.000 C
ATOM     41  C5  GU6 D   3       0.262  41.120 -26.8360  0.00  0.00     0.000 C
ATOM     42  O5  GU6 D   3      -0.860  41.225 -25.9510  0.00  0.00     0.000 O
BRANCH 38 43
ATOM     43   O  GU6 D   3      -1.547  44.795 -26.1140  0.00  0.00     0.000 O
ATOM     44   S  GU6 D   3      -1.640  45.653 -24.8590  0.00  0.00     0.000 S
ATOM     45   O  GU6 D   3      -2.691  45.097 -23.9890  0.00  0.00     0.000 OA
ATOM     46   O  GU6 D   3      -0.345  45.603 -24.1570  0.00  0.00     0.000 O
ATOM     47   O  GU6 D   3      -1.945  47.026 -25.2500  0.00  0.00     0.000 OA
ENDBRANCH 38 43
BRANCH 39 48
ATOM     48   O  GU6 D   3       1.032  44.779 -27.3030  0.00  0.00     0.000 O
ATOM     49   S  GU6 D   3       0.810  45.742 -28.4680  0.00  0.00     0.000 S
ATOM     50   O  GU6 D   3      -0.577  46.218 -28.4730  0.00  0.00     0.000 OA
ATOM     51   O  GU6 D   3       1.747  46.837 -28.1780  0.00  0.00     0.000 OA
ATOM     52   O  GU6 D   3       1.109  45.039 -29.7350  0.00  0.00     0.000 O
ENDBRANCH 39 48
BRANCH 41 53
ATOM     53   C  GU6 D   3       1.007  39.814 -26.7710  0.00  0.00     0.000 C
ATOM     54   O  GU6 D   3       1.571  39.979 -25.4960  0.00  0.00     0.000 O
ATOM     55   S  GU6 D   3       2.561  38.945 -24.9440  0.00  0.00     0.000 S
ATOM     56   O  GU6 D   3       3.771  39.015 -25.7960  0.00  0.00     0.000 O
ATOM     57   O  GU6 D   3       2.883  39.301 -23.5540  0.00  0.00     0.000 OA
ATOM     58   O  GU6 D   3       1.914  37.618 -25.0460  0.00  0.00     0.000 OA
ENDBRANCH 41 53
BRANCH 37 59
ATOM     59  O4  Z9K D   4      -2.503  42.132 -27.2900  0.00  0.00     0.000 O
BRANCH 59 63
ATOM     60  C1  Z9K D   4      -5.479  42.061 -29.8570  0.00  0.00     0.000 C
ATOM     61  C2  Z9K D   4      -5.849  43.304 -29.0010  0.00  0.00     0.000 C
ATOM     62  C3  Z9K D   4      -4.555  43.437 -28.0880  0.00  0.00     0.000 C
ATOM     63  C4  Z9K D   4      -3.956  42.145 -27.4110  0.00  0.00     0.000 C
ATOM     64  C5  Z9K D   4      -4.238  40.816 -28.1280  0.00  0.00     0.000 C
ATOM     65  O5  Z9K D   4      -4.286  41.207 -29.5250  0.00  0.00     0.000 O
ATOM     66   O  Z9K D   4      -4.713  44.378 -27.0110  0.00  0.00     0.000 O
ATOM     67   C  Z9K D   4      -4.435  45.724 -27.3630  0.00  0.00     0.000 C
BRANCH 61 68
ATOM     68   O  Z9K D   4      -5.841  44.411 -29.8600  0.00  0.00     0.000 O
ATOM     69   O  Z9K D   4      -7.595  44.682 -28.0160  0.00  0.00     0.000 OA
ATOM     70   S  Z9K D   4      -7.392  44.359 -29.3960  0.00  0.00     0.000 S
ATOM     71   O  Z9K D   4      -8.059  43.319 -30.1180  0.00  0.00     0.000 OA
ATOM     72   O  Z9K D   4      -7.350  45.540 -30.1960  0.00  0.00     0.000 OA
ENDBRANCH 61 68
BRANCH 64 73
ATOM     73   C  Z9K D   4      -3.228  39.733 -27.6940  0.00  0.00     0.000 C
ATOM     74   O  Z9K D   4      -2.287  39.370 -28.4590  0.00  0.00     0.000 O
ATOM     75   O  Z9K D   4      -3.295  39.178 -26.5700  0.00  0.00     0.000 OA
ENDBRANCH 64 73
BRANCH 60 76
ATOM     76  O4  Z9L D   5      -6.313  40.951 -30.2300  0.00  0.00     0.000 O
BRANCH 76 80
ATOM     77  C1  Z9L D   5      -7.406  38.576 -33.2530  0.00  0.00     0.000 C
ATOM     78  C2  Z9L D   5      -6.647  37.654 -32.1820  0.00  0.00     0.000 C
ATOM     79  C3  Z9L D   5      -6.598  38.530 -30.7360  0.00  0.00     0.000 C
ATOM     80  C4  Z9L D   5      -6.220  40.035 -31.2900  0.00  0.00     0.000 C
ATOM     81  C5  Z9L D   5      -6.823  40.887 -32.5190  0.00  0.00     0.000 C
ATOM     82  O5  Z9L D   5      -7.004  39.962 -33.6020  0.00  0.00     0.000 O
ATOM     83   C  Z9L D   5      -9.635  39.341 -33.8350  0.00  0.00     0.000 C
ATOM     84   C  Z9L D   5      -9.635  39.341 -33.8350  0.00  0.00     0.000 C
BRANCH 78 85
ATOM     85   O  Z9L D   5      -7.403  36.501 -31.9920  0.00  0.00     0.000 O
ATOM     86   O  Z9L D   5      -6.896  34.737 -32.5730  0.00  0.00     0.000 OA
ATOM     87   S  Z9L D   5      -6.068  35.901 -32.6550  0.00  0.00     0.000 S
ATOM     88   O  Z9L D   5      -5.003  35.670 -31.7100  0.00  0.00     0.000 OA
ATOM     89   O  Z9L D   5      -5.890  36.138 -34.0460  0.00  0.00     0.000 OA
ENDBRANCH 78 85
BRANCH 79 90
ATOM     90   O  Z9L D   5      -5.478  38.197 -29.9790  0.00  0.00     0.000 O
ATOM     91   S  Z9L D   5      -6.624  37.824 -28.9380  0.00  0.00     0.000 S
ATOM     92   O  Z9L D   5      -7.679  36.897 -29.2530  0.00  0.00     0.000 OA
ATOM     93   O  Z9L D   5      -6.859  38.947 -28.0640  0.00  0.00     0.000 O
ATOM     94   O  Z9L D   5      -5.552  37.068 -28.3750  0.00  0.00     0.000 OA
ENDBRANCH 79 90
BRANCH 81 95
ATOM     95   C  Z9L D   5      -6.115  42.372 -32.8460  0.00  0.00     0.000 C
ATOM     96   S  Z9L D   5      -4.800  43.328 -33.9970  0.00  0.00     0.000 S
ATOM     97   O  Z9L D   5      -4.891  41.899 -33.3420  0.00  0.00     0.000 O
ATOM     98   O  Z9L D   5      -4.530  44.257 -32.9290  0.00  0.00     0.000 OA
ATOM     99   O  Z9L D   5      -5.770  43.613 -35.0000  0.00  0.00     0.000 OA
ATOM    100   O  Z9L D   5      -3.544  42.794 -34.4630  0.00  0.00     0.000 O
ENDBRANCH 81 95
ENDBRANCH 76 80
ENDBRANCH 60 76
ENDBRANCH 59 63
ENDBRANCH 37 59
ENDBRANCH 36 40
ENDBRANCH 23 36
ENDBRANCH 22 26
ENDBRANCH 1 22
TORSDOF 19
ENDMDL
MODEL 89
REMARK VINA RESULT:      -5.2     25.871     31.955
ROOT
ATOM      1  C1  Z9H D   1      14.699   1.668 -42.5660  0.00  0.00     0.000 C
ATOM      2  C2  Z9H D   1      14.706   0.411 -43.4680  0.00  0.00     0.000 C
ATOM      3  C3  Z9H D   1      16.214   0.431 -43.8660  0.00  0.00     0.000 C
ATOM      4  C4  Z9H D   1      16.755   1.819 -44.4080  0.00  0.00     0.000 C
ATOM      5  C5  Z9H D   1      16.473   3.197 -43.6870  0.00  0.00     0.000 C
ATOM      6  O5  Z9H D   1      15.184   2.942 -43.0740  0.00  0.00     0.000 O
ATOM      7   O  Z9H D   1      16.530  -0.618 -44.7840  0.00  0.00     0.000 O
ATOM      8   C  Z9H D   1      17.118  -1.792 -44.1980  0.00  0.00     0.000 C
ATOM      9   O  Z9H D   1      18.176   1.672 -44.5000  0.00  0.00     0.000 O
ATOM     10   C  Z9H D   1      18.684   1.383 -45.8060  0.00  0.00     0.000 C
ENDROOT
BRANCH 2 11
ATOM     11   O  Z9H D   1      14.590  -0.625 -42.5280  0.00  0.00     0.000 O
ATOM     12   O  Z9H D   1      13.077  -1.738 -42.3600  0.00  0.00     0.000 OA
ATOM     13   S  Z9H D   1      13.228  -0.716 -43.3400  0.00  0.00     0.000 S
ATOM     14   O  Z9H D   1      13.519  -1.212 -44.6550  0.00  0.00     0.000 OA
ATOM     15   O  Z9H D   1      12.355   0.397 -43.0450  0.00  0.00     0.000 O
ENDBRANCH 2 11
BRANCH 5 16
ATOM     16   C  Z9H D   1      16.736   4.555 -44.6280  0.00  0.00     0.000 C
ATOM     17   S  Z9H D   1      16.806   5.242 -46.5160  0.00  0.00     0.000 S
ATOM     18   O  Z9H D   1      15.863   4.231 -45.6820  0.00  0.00     0.000 O
ATOM     19   O  Z9H D   1      18.143   4.773 -46.7380  0.00  0.00     0.000 O
ATOM     20   O  Z9H D   1      16.497   6.588 -46.1810  0.00  0.00     0.000 OA
ATOM     21   O  Z9H D   1      15.915   4.836 -47.5630  0.00  0.00     0.000 OA
ENDBRANCH 5 16
BRANCH 1 22
ATOM     22  O4  GU1 D   2      15.498   1.549 -41.3340  0.00  0.00     0.000 O
BRANCH 22 26
ATOM     23  C1  GU1 D   2      15.800   2.888 -37.4490  0.00  0.00     0.000 C
ATOM     24  C2  GU1 D   2      14.400   2.951 -38.0400  0.00  0.00     0.000 C
ATOM     25  C3  GU1 D   2      14.344   2.102 -39.2780  0.00  0.00     0.000 C
ATOM     26  C4  GU1 D   2      15.450   2.486 -40.2510  0.00  0.00     0.000 C
ATOM     27  C5  GU1 D   2      16.802   2.493 -39.5320  0.00  0.00     0.000 C
ATOM     28  O5  GU1 D   2      16.758   3.350 -38.3950  0.00  0.00     0.000 O
ATOM     29   O  GU1 D   2      13.417   2.474 -37.1300  0.00  0.00     0.000 O
ATOM     30   C  GU1 D   2      12.765   3.503 -36.3980  0.00  0.00     0.000 C
ATOM     31   C  GU1 D   2      12.125   1.277 -39.7090  0.00  0.00     0.000 C
ATOM     32   O  GU1 D   2      13.080   2.315 -39.9140  0.00  0.00     0.000 O
BRANCH 27 33
ATOM     33   C  GU1 D   2      17.902   2.986 -40.4410  0.00  0.00     0.000 C
ATOM     34   O  GU1 D   2      18.129   4.178 -40.4790  0.00  0.00     0.000 OA
ATOM     35   O  GU1 D   2      18.547   2.201 -41.1180  0.00  0.00     0.000 O
ENDBRANCH 27 33
BRANCH 23 36
ATOM     36  O4  GU6 D   3      16.183   3.803 -36.4040  0.00  0.00     0.000 O
BRANCH 36 40
ATOM     37  C1  GU6 D   3      16.779   5.741 -32.8560  0.00  0.00     0.000 C
ATOM     38  C2  GU6 D   3      16.362   6.658 -34.0000  0.00  0.00     0.000 C
ATOM     39  C3  GU6 D   3      15.908   5.828 -35.1720  0.00  0.00     0.000 C
ATOM     40  C4  GU6 D   3      16.143   4.381 -35.1150  0.00  0.00     0.000 C
ATOM     41  C5  GU6 D   3      17.527   4.103 -34.4400  0.00  0.00     0.000 C
ATOM     42  O5  GU6 D   3      17.842   4.915 -33.3040  0.00  0.00     0.000 O
BRANCH 38 43
ATOM     43   O  GU6 D   3      15.321   7.524 -33.5890  0.00  0.00     0.000 O
ATOM     44   S  GU6 D   3      15.798   8.845 -33.0010  0.00  0.00     0.000 S
ATOM     45   O  GU6 D   3      16.163   8.627 -31.5910  0.00  0.00     0.000 OA
ATOM     46   O  GU6 D   3      16.986   9.293 -33.7510  0.00  0.00     0.000 O
ATOM     47   O  GU6 D   3      14.728   9.829 -33.1270  0.00  0.00     0.000 OA
ENDBRANCH 38 43
BRANCH 39 48
ATOM     48   O  GU6 D   3      15.082   6.383 -36.1780  0.00  0.00     0.000 O
ATOM     49   S  GU6 D   3      15.447   7.272 -37.3660  0.00  0.00     0.000 S
ATOM     50   O  GU6 D   3      16.483   6.627 -38.1810  0.00  0.00     0.000 OA
ATOM     51   O  GU6 D   3      14.181   7.379 -38.1030  0.00  0.00     0.000 OA
ATOM     52   O  GU6 D   3      15.938   8.573 -36.8580  0.00  0.00     0.000 O
ENDBRANCH 39 48
BRANCH 41 53
ATOM     53   C  GU6 D   3      18.574   3.086 -34.8100  0.00  0.00     0.000 C
ATOM     54   O  GU6 D   3      19.271   3.864 -35.7490  0.00  0.00     0.000 O
ATOM     55   S  GU6 D   3      20.425   3.257 -36.5580  0.00  0.00     0.000 S
ATOM     56   O  GU6 D   3      19.832   2.222 -37.4370  0.00  0.00     0.000 O
ATOM     57   O  GU6 D   3      21.048   4.322 -37.3570  0.00  0.00     0.000 OA
ATOM     58   O  GU6 D   3      21.371   2.655 -35.5920  0.00  0.00     0.000 OA
ENDBRANCH 41 53
BRANCH 37 59
ATOM     59  O4  Z9K D   4      15.881   4.909 -32.0920  0.00  0.00     0.000 O
BRANCH 59 63
ATOM     60  C1  Z9K D   4      15.223   4.145 -28.2930  0.00  0.00     0.000 C
ATOM     61  C2  Z9K D   4      16.773   4.045 -28.3560  0.00  0.00     0.000 C
ATOM     62  C3  Z9K D   4      17.045   4.534 -29.8450  0.00  0.00     0.000 C
ATOM     63  C4  Z9K D   4      16.155   3.966 -31.0150  0.00  0.00     0.000 C
ATOM     64  C5  Z9K D   4      14.746   3.495 -30.6230  0.00  0.00     0.000 C
ATOM     65  O5  Z9K D   4      14.401   4.385 -29.5300  0.00  0.00     0.000 O
ATOM     66   O  Z9K D   4      18.402   4.319 -30.2740  0.00  0.00     0.000 O
ATOM     67   C  Z9K D   4      19.301   5.355 -29.9150  0.00  0.00     0.000 C
BRANCH 61 68
ATOM     68   O  Z9K D   4      17.284   5.042 -27.5150  0.00  0.00     0.000 O
ATOM     69   O  Z9K D   4      18.831   3.005 -27.5830  0.00  0.00     0.000 OA
ATOM     70   S  Z9K D   4      17.840   3.693 -26.8120  0.00  0.00     0.000 S
ATOM     71   O  Z9K D   4      16.777   3.078 -26.0770  0.00  0.00     0.000 OA
ATOM     72   O  Z9K D   4      18.434   4.720 -26.0190  0.00  0.00     0.000 OA
ENDBRANCH 61 68
BRANCH 64 73
ATOM     73   C  Z9K D   4      13.822   3.443 -31.8580  0.00  0.00     0.000 C
ATOM     74   O  Z9K D   4      12.881   4.277 -32.0080  0.00  0.00     0.000 O
ATOM     75   O  Z9K D   4      13.970   2.582 -32.7600  0.00  0.00     0.000 OA
ENDBRANCH 64 73
BRANCH 60 76
ATOM     76  O4  Z9L D   5      14.290   3.216 -27.7150  0.00  0.00     0.000 O
BRANCH 76 80
ATOM     77  C1  Z9L D   5      10.924   2.841 -25.5940  0.00  0.00     0.000 C
ATOM     78  C2  Z9L D   5      10.602   2.330 -27.0790  0.00  0.00     0.000 C
ATOM     79  C3  Z9L D   5      12.092   2.053 -27.8310  0.00  0.00     0.000 C
ATOM     80  C4  Z9L D   5      12.949   3.368 -27.3280  0.00  0.00     0.000 C
ATOM     81  C5  Z9L D   5      13.098   4.033 -25.8670  0.00  0.00     0.000 C
ATOM     82  O5  Z9L D   5      11.790   4.005 -25.2750  0.00  0.00     0.000 O
ATOM     83   C  Z9L D   5      11.669   2.013 -23.4370  0.00  0.00     0.000 C
ATOM     84   C  Z9L D   5      11.669   2.013 -23.4370  0.00  0.00     0.000 C
BRANCH 78 85
ATOM     85   O  Z9L D   5       9.910   1.127 -26.9820  0.00  0.00     0.000 O
ATOM     86   O  Z9L D   5       8.053   0.879 -27.4290  0.00  0.00     0.000 OA
ATOM     87   S  Z9L D   5       8.800   2.081 -27.6460  0.00  0.00     0.000 S
ATOM     88   O  Z9L D   5       8.914   2.196 -29.0780  0.00  0.00     0.000 OA
ATOM     89   O  Z9L D   5       8.205   3.051 -26.7920  0.00  0.00     0.000 OA
ENDBRANCH 78 85
BRANCH 79 90
ATOM     90   O  Z9L D   5      12.011   2.253 -29.2060  0.00  0.00     0.000 O
ATOM     91   S  Z9L D   5      12.464   0.727 -29.1850  0.00  0.00     0.000 S
ATOM     92   O  Z9L D   5      11.724  -0.287 -28.4800  0.00  0.00     0.000 OA
ATOM     93   O  Z9L D   5      13.899   0.653 -29.2970  0.00  0.00     0.000 O
ATOM     94   O  Z9L D   5      11.940   0.788 -30.5110  0.00  0.00     0.000 OA
ENDBRANCH 79 90
BRANCH 81 95
ATOM     95   C  Z9L D   5      13.997   5.444 -25.7530  0.00  0.00     0.000 C
ATOM     96   S  Z9L D   5      14.819   6.751 -24.4940  0.00  0.00     0.000 S
ATOM     97   O  Z9L D   5      13.499   5.893 -24.5210  0.00  0.00     0.000 O
ATOM     98   O  Z9L D   5      14.651   7.802 -25.4640  0.00  0.00     0.000 OA
ATOM     99   O  Z9L D   5      16.035   6.014 -24.4040  0.00  0.00     0.000 OA
ATOM    100   O  Z9L D   5      14.250   7.188 -23.2440  0.00  0.00     0.000 O
ENDBRANCH 81 95
ENDBRANCH 76 80
ENDBRANCH 60 76
ENDBRANCH 59 63
ENDBRANCH 37 59
ENDBRANCH 36 40
ENDBRANCH 23 36
ENDBRANCH 22 26
ENDBRANCH 1 22
TORSDOF 19
ENDMDL
MODEL 90
REMARK VINA RESULT:      -5.2      7.410     15.335
ROOT
ATOM      1  C1  Z9H D   1      32.150  28.236 -21.8460  0.00  0.00     0.000 C
ATOM      2  C2  Z9H D   1      32.910  27.767 -23.1100  0.00  0.00     0.000 C
ATOM      3  C3  Z9H D   1      33.267  29.171 -23.6880  0.00  0.00     0.000 C
ATOM      4  C4  Z9H D   1      32.056  30.186 -23.8030  0.00  0.00     0.000 C
ATOM      5  C5  Z9H D   1      31.030  30.443 -22.6280  0.00  0.00     0.000 C
ATOM      6  O5  Z9H D   1      31.030  29.157 -21.9600  0.00  0.00     0.000 O
ATOM      7   O  Z9H D   1      33.949  29.067 -24.9400  0.00  0.00     0.000 O
ATOM      8   C  Z9H D   1      35.380  29.180 -24.8730  0.00  0.00     0.000 C
ATOM      9   O  Z9H D   1      32.638  31.450 -24.1400  0.00  0.00     0.000 O
ATOM     10   C  Z9H D   1      32.587  31.803 -25.5250  0.00  0.00     0.000 C
ENDROOT
BRANCH 2 11
ATOM     11   O  Z9H D   1      34.109  27.281 -22.5660  0.00  0.00     0.000 O
ATOM     12   O  Z9H D   1      34.594  25.458 -22.5300  0.00  0.00     0.000 OA
ATOM     13   S  Z9H D   1      33.403  25.970 -23.1210  0.00  0.00     0.000 S
ATOM     14   O  Z9H D   1      33.439  26.011 -24.5550  0.00  0.00     0.000 OA
ATOM     15   O  Z9H D   1      32.251  25.608 -22.3280  0.00  0.00     0.000 O
ENDBRANCH 2 11
BRANCH 5 16
ATOM     16   C  Z9H D   1      29.602  31.187 -23.0850  0.00  0.00     0.000 C
ATOM     17   S  Z9H D   1      27.868  31.944 -22.4050  0.00  0.00     0.000 S
ATOM     18   O  Z9H D   1      29.410  31.963 -21.9270  0.00  0.00     0.000 O
ATOM     19   O  Z9H D   1      27.229  30.661 -22.3270  0.00  0.00     0.000 O
ATOM     20   O  Z9H D   1      27.680  32.844 -23.4880  0.00  0.00     0.000 OA
ATOM     21   O  Z9H D   1      27.727  32.688 -21.1880  0.00  0.00     0.000 OA
ENDBRANCH 5 16
BRANCH 1 22
ATOM     22  O4  GU1 D   2      32.978  28.942 -20.8530  0.00  0.00     0.000 O
BRANCH 22 26
ATOM     23  C1  GU1 D   2      33.298  29.919 -16.8630  0.00  0.00     0.000 C
ATOM     24  C2  GU1 D   2      32.586  28.605 -17.1450  0.00  0.00     0.000 C
ATOM     25  C3  GU1 D   2      32.867  28.179 -18.5570  0.00  0.00     0.000 C
ATOM     26  C4  GU1 D   2      32.531  29.293 -19.5380  0.00  0.00     0.000 C
ATOM     27  C5  GU1 D   2      33.212  30.595 -19.1060  0.00  0.00     0.000 C
ATOM     28  O5  GU1 D   2      32.855  30.925 -17.7670  0.00  0.00     0.000 O
ATOM     29   O  GU1 D   2      33.020  27.567 -16.2730  0.00  0.00     0.000 O
ATOM     30   C  GU1 D   2      32.175  27.370 -15.1490  0.00  0.00     0.000 C
ATOM     31   C  GU1 D   2      32.732  25.791 -18.8260  0.00  0.00     0.000 C
ATOM     32   O  GU1 D   2      32.051  27.043 -18.8580  0.00  0.00     0.000 O
BRANCH 27 33
ATOM     33   C  GU1 D   2      32.800  31.747 -19.9920  0.00  0.00     0.000 C
ATOM     34   O  GU1 D   2      33.551  32.087 -20.8840  0.00  0.00     0.000 OA
ATOM     35   O  GU1 D   2      31.735  32.317 -19.8140  0.00  0.00     0.000 O
ENDBRANCH 27 33
BRANCH 23 36
ATOM     36  O4  GU6 D   3      32.993  30.662 -15.6660  0.00  0.00     0.000 O
BRANCH 36 40
ATOM     37  C1  GU6 D   3      31.368  33.393 -13.0980  0.00  0.00     0.000 C
ATOM     38  C2  GU6 D   3      32.509  32.581 -12.4970  0.00  0.00     0.000 C
ATOM     39  C3  GU6 D   3      33.209  31.811 -13.5860  0.00  0.00     0.000 C
ATOM     40  C4  GU6 D   3      32.583  31.785 -14.9130  0.00  0.00     0.000 C
ATOM     41  C5  GU6 D   3      31.029  31.693 -14.7560  0.00  0.00     0.000 C
ATOM     42  O5  GU6 D   3      30.457  32.501 -13.7210  0.00  0.00     0.000 O
BRANCH 38 43
ATOM     43   O  GU6 D   3      33.429  33.428 -11.8370  0.00  0.00     0.000 O
ATOM     44   S  GU6 D   3      33.099  33.698 -10.3740  0.00  0.00     0.000 S
ATOM     45   O  GU6 D   3      32.084  34.763 -10.3120  0.00  0.00     0.000 OA
ATOM     46   O  GU6 D   3      32.551  32.464  -9.7810  0.00  0.00     0.000 O
ATOM     47   O  GU6 D   3      34.322  34.087  -9.6800  0.00  0.00     0.000 OA
ENDBRANCH 38 43
BRANCH 39 48
ATOM     48   O  GU6 D   3      34.527  31.330 -13.4040  0.00  0.00     0.000 O
ATOM     49   S  GU6 D   3      35.033  30.141 -12.5890  0.00  0.00     0.000 S
ATOM     50   O  GU6 D   3      34.345  28.914 -13.0050  0.00  0.00     0.000 OA
ATOM     51   O  GU6 D   3      36.462  30.090 -12.9270  0.00  0.00     0.000 OA
ATOM     52   O  GU6 D   3      34.782  30.401 -11.1540  0.00  0.00     0.000 O
ENDBRANCH 39 48
BRANCH 41 53
ATOM     53   C  GU6 D   3      30.043  30.883 -15.5530  0.00  0.00     0.000 C
ATOM     54   O  GU6 D   3      29.516  30.127 -14.4930  0.00  0.00     0.000 O
ATOM     55   S  GU6 D   3      28.501  29.009 -14.7640  0.00  0.00     0.000 S
ATOM     56   O  GU6 D   3      29.214  27.959 -15.5280  0.00  0.00     0.000 O
ATOM     57   O  GU6 D   3      28.029  28.483 -13.4740  0.00  0.00     0.000 OA
ATOM     58   O  GU6 D   3      27.403  29.597 -15.5640  0.00  0.00     0.000 OA
ENDBRANCH 41 53
BRANCH 37 59
ATOM     59  O4  Z9K D   4      31.532  34.525 -13.9790  0.00  0.00     0.000 O
BRANCH 59 63
ATOM     60  C1  Z9K D   4      31.138  38.364 -14.7220  0.00  0.00     0.000 C
ATOM     61  C2  Z9K D   4      29.990  38.136 -13.7000  0.00  0.00     0.000 C
ATOM     62  C3  Z9K D   4      30.269  36.632 -13.2640  0.00  0.00     0.000 C
ATOM     63  C4  Z9K D   4      30.582  35.557 -14.3740  0.00  0.00     0.000 C
ATOM     64  C5  Z9K D   4      31.199  36.091 -15.6750  0.00  0.00     0.000 C
ATOM     65  O5  Z9K D   4      31.984  37.224 -15.2190  0.00  0.00     0.000 O
ATOM     66   O  Z9K D   4      29.203  36.059 -12.4850  0.00  0.00     0.000 O
ATOM     67   C  Z9K D   4      29.282  36.331 -11.0950  0.00  0.00     0.000 C
BRANCH 61 68
ATOM     68   O  Z9K D   4      30.274  38.929 -12.5790  0.00  0.00     0.000 O
ATOM     69   O  Z9K D   4      27.750  38.688 -12.9290  0.00  0.00     0.000 OA
ATOM     70   S  Z9K D   4      28.873  39.561 -13.0910  0.00  0.00     0.000 S
ATOM     71   O  Z9K D   4      29.126  40.396 -14.2260  0.00  0.00     0.000 OA
ATOM     72   O  Z9K D   4      29.123  40.298 -11.8950  0.00  0.00     0.000 OA
ENDBRANCH 61 68
BRANCH 64 73
ATOM     73   C  Z9K D   4      31.909  34.961 -16.4500  0.00  0.00     0.000 C
ATOM     74   O  Z9K D   4      33.169  34.841 -16.4270  0.00  0.00     0.000 O
ATOM     75   O  Z9K D   4      31.269  34.118 -17.1250  0.00  0.00     0.000 OA
ENDBRANCH 64 73
BRANCH 60 76
ATOM     76  O4  Z9L D   5      31.083  39.028 -15.9960  0.00  0.00     0.000 O
BRANCH 76 80
ATOM     77  C1  Z9L D   5      33.253  41.100 -18.6360  0.00  0.00     0.000 C
ATOM     78  C2  Z9L D   5      32.759  39.767 -19.3770  0.00  0.00     0.000 C
ATOM     79  C3  Z9L D   5      31.494  39.135 -18.4480  0.00  0.00     0.000 C
ATOM     80  C4  Z9L D   5      32.089  39.338 -16.9250  0.00  0.00     0.000 C
ATOM     81  C5  Z9L D   5      32.802  40.608 -16.2330  0.00  0.00     0.000 C
ATOM     82  O5  Z9L D   5      33.689  41.159 -17.2170  0.00  0.00     0.000 O
ATOM     83   C  Z9L D   5      32.592  43.407 -18.2700  0.00  0.00     0.000 C
ATOM     84   C  Z9L D   5      32.592  43.407 -18.2700  0.00  0.00     0.000 C
BRANCH 78 85
ATOM     85   O  Z9L D   5      32.270  40.125 -20.6300  0.00  0.00     0.000 O
ATOM     86   O  Z9L D   5      33.098  39.678 -22.3110  0.00  0.00     0.000 OA
ATOM     87   S  Z9L D   5      33.527  39.207 -21.0290  0.00  0.00     0.000 S
ATOM     88   O  Z9L D   5      33.237  37.794 -21.0340  0.00  0.00     0.000 OA
ATOM     89   O  Z9L D   5      34.816  39.777 -20.8320  0.00  0.00     0.000 OA
ENDBRANCH 78 85
BRANCH 79 90
ATOM     90   O  Z9L D   5      31.424  37.749 -18.5630  0.00  0.00     0.000 O
ATOM     91   S  Z9L D   5      29.935  38.127 -18.9830  0.00  0.00     0.000 S
ATOM     92   O  Z9L D   5      29.646  39.034 -20.0630  0.00  0.00     0.000 OA
ATOM     93   O  Z9L D   5      29.080  38.058 -17.8240  0.00  0.00     0.000 O
ATOM     94   O  Z9L D   5      30.000  36.814 -19.5390  0.00  0.00     0.000 OA
ENDBRANCH 79 90
BRANCH 81 95
ATOM     95   C  Z9L D   5      33.368  40.412 -14.6660  0.00  0.00     0.000 C
ATOM     96   S  Z9L D   5      34.974  40.025 -13.5540  0.00  0.00     0.000 S
ATOM     97   O  Z9L D   5      34.429  39.541 -14.9500  0.00  0.00     0.000 O
ATOM     98   O  Z9L D   5      34.141  39.416 -12.5500  0.00  0.00     0.000 OA
ATOM     99   O  Z9L D   5      35.345  41.398 -13.4770  0.00  0.00     0.000 OA
ATOM    100   O  Z9L D   5      36.029  39.102 -13.8920  0.00  0.00     0.000 O
ENDBRANCH 81 95
ENDBRANCH 76 80
ENDBRANCH 60 76
ENDBRANCH 59 63
ENDBRANCH 37 59
ENDBRANCH 36 40
ENDBRANCH 23 36
ENDBRANCH 22 26
ENDBRANCH 1 22
TORSDOF 19
ENDMDL
MODEL 91
REMARK VINA RESULT:      -5.2     36.226     42.935
ROOT
ATOM      1  C1  Z9H D   1      23.139   3.940 -48.4950  0.00  0.00     0.000 C
ATOM      2  C2  Z9H D   1      23.713   3.015 -47.3950  0.00  0.00     0.000 C
ATOM      3  C3  Z9H D   1      23.090   3.730 -46.1570  0.00  0.00     0.000 C
ATOM      4  C4  Z9H D   1      23.314   5.298 -46.0940  0.00  0.00     0.000 C
ATOM      5  C5  Z9H D   1      23.063   6.256 -47.3250  0.00  0.00     0.000 C
ATOM      6  O5  Z9H D   1      23.359   5.377 -48.4390  0.00  0.00     0.000 O
ATOM      7   O  Z9H D   1      23.505   3.119 -44.9330  0.00  0.00     0.000 O
ATOM      8   C  Z9H D   1      22.568   2.192 -44.3600  0.00  0.00     0.000 C
ATOM      9   O  Z9H D   1      22.490   5.765 -45.0200  0.00  0.00     0.000 O
ATOM     10   C  Z9H D   1      23.164   5.989 -43.7780  0.00  0.00     0.000 C
ENDROOT
BRANCH 2 11
ATOM     11   O  Z9H D   1      22.950   1.849 -47.5660  0.00  0.00     0.000 O
ATOM     12   O  Z9H D   1      23.651   0.204 -48.1650  0.00  0.00     0.000 OA
ATOM     13   S  Z9H D   1      24.421   1.380 -47.9420  0.00  0.00     0.000 S
ATOM     14   O  Z9H D   1      25.203   1.342 -46.7390  0.00  0.00     0.000 OA
ATOM     15   O  Z9H D   1      24.857   1.944 -49.1990  0.00  0.00     0.000 O
ENDBRANCH 2 11
BRANCH 5 16
ATOM     16   C  Z9H D   1      23.767   7.770 -47.2000  0.00  0.00     0.000 C
ATOM     17   S  Z9H D   1      23.507   9.725 -47.5840  0.00  0.00     0.000 S
ATOM     18   O  Z9H D   1      22.587   8.517 -47.0350  0.00  0.00     0.000 O
ATOM     19   O  Z9H D   1      23.901   9.605 -48.9590  0.00  0.00     0.000 O
ATOM     20   O  Z9H D   1      24.380  10.181 -46.5600  0.00  0.00     0.000 OA
ATOM     21   O  Z9H D   1      22.263  10.424 -47.4430  0.00  0.00     0.000 OA
ENDBRANCH 5 16
BRANCH 1 22
ATOM     22  O4  GU1 D   2      21.672   3.900 -48.6340  0.00  0.00     0.000 O
BRANCH 22 26
ATOM     23  C1  GU1 D   2      18.498   4.138 -51.2500  0.00  0.00     0.000 C
ATOM     24  C2  GU1 D   2      19.691   3.345 -51.7620  0.00  0.00     0.000 C
ATOM     25  C3  GU1 D   2      20.595   3.009 -50.6120  0.00  0.00     0.000 C
ATOM     26  C4  GU1 D   2      20.968   4.259 -49.8290  0.00  0.00     0.000 C
ATOM     27  C5  GU1 D   2      19.704   5.038 -49.4520  0.00  0.00     0.000 C
ATOM     28  O5  GU1 D   2      18.935   5.334 -50.6140  0.00  0.00     0.000 O
ATOM     29   O  GU1 D   2      19.294   2.130 -52.3860  0.00  0.00     0.000 O
ATOM     30   C  GU1 D   2      19.198   2.214 -53.8000  0.00  0.00     0.000 C
ATOM     31   C  GU1 D   2      21.865   1.004 -51.0160  0.00  0.00     0.000 C
ATOM     32   O  GU1 D   2      21.792   2.423 -51.1350  0.00  0.00     0.000 O
BRANCH 27 33
ATOM     33   C  GU1 D   2      20.048   6.345 -48.7790  0.00  0.00     0.000 C
ATOM     34   O  GU1 D   2      20.702   7.159 -49.3980  0.00  0.00     0.000 OA
ATOM     35   O  GU1 D   2      19.672   6.575 -47.6400  0.00  0.00     0.000 O
ENDBRANCH 27 33
BRANCH 23 36
ATOM     36  O4  GU6 D   3      17.613   4.791 -52.1810  0.00  0.00     0.000 O
BRANCH 36 40
ATOM     37  C1  GU6 D   3      14.200   5.869 -54.1520  0.00  0.00     0.000 C
ATOM     38  C2  GU6 D   3      15.460   6.537 -54.6870  0.00  0.00     0.000 C
ATOM     39  C3  GU6 D   3      16.675   5.877 -54.0870  0.00  0.00     0.000 C
ATOM     40  C4  GU6 D   3      16.462   4.927 -52.9900  0.00  0.00     0.000 C
ATOM     41  C5  GU6 D   3      15.308   5.444 -52.0680  0.00  0.00     0.000 C
ATOM     42  O5  GU6 D   3      14.178   6.010 -52.7400  0.00  0.00     0.000 O
BRANCH 38 43
ATOM     43   O  GU6 D   3      15.510   6.448 -56.0980  0.00  0.00     0.000 O
ATOM     44   S  GU6 D   3      14.967   7.671 -56.8250  0.00  0.00     0.000 S
ATOM     45   O  GU6 D   3      13.498   7.570 -56.8780  0.00  0.00     0.000 OA
ATOM     46   O  GU6 D   3      15.349   8.877 -56.0680  0.00  0.00     0.000 O
ATOM     47   O  GU6 D   3      15.545   7.717 -58.1650  0.00  0.00     0.000 OA
ENDBRANCH 38 43
BRANCH 39 48
ATOM     48   O  GU6 D   3      17.942   5.988 -54.7060  0.00  0.00     0.000 O
ATOM     49   S  GU6 D   3      18.977   7.110 -54.6270  0.00  0.00     0.000 S
ATOM     50   O  GU6 D   3      19.328   7.376 -53.2270  0.00  0.00     0.000 OA
ATOM     51   O  GU6 D   3      20.122   6.559 -55.3650  0.00  0.00     0.000 OA
ATOM     52   O  GU6 D   3      18.413   8.328 -55.2490  0.00  0.00     0.000 O
ENDBRANCH 39 48
BRANCH 41 53
ATOM     53   C  GU6 D   3      15.211   5.415 -50.5660  0.00  0.00     0.000 C
ATOM     54   O  GU6 D   3      14.045   4.640 -50.4650  0.00  0.00     0.000 O
ATOM     55   S  GU6 D   3      13.399   4.380 -49.0980  0.00  0.00     0.000 S
ATOM     56   O  GU6 D   3      12.909   5.687 -48.6010  0.00  0.00     0.000 O
ATOM     57   O  GU6 D   3      12.282   3.441 -49.2780  0.00  0.00     0.000 OA
ATOM     58   O  GU6 D   3      14.451   3.834 -48.2120  0.00  0.00     0.000 OA
ENDBRANCH 41 53
BRANCH 37 59
ATOM     59  O4  Z9K D   4      13.784   4.521 -54.4550  0.00  0.00     0.000 O
BRANCH 59 63
ATOM     60  C1  Z9K D   4      10.367   2.952 -55.6010  0.00  0.00     0.000 C
ATOM     61  C2  Z9K D   4       9.917   3.789 -54.3720  0.00  0.00     0.000 C
ATOM     62  C3  Z9K D   4      11.262   4.564 -54.0260  0.00  0.00     0.000 C
ATOM     63  C4  Z9K D   4      12.622   3.767 -54.0010  0.00  0.00     0.000 C
ATOM     64  C5  Z9K D   4      12.683   2.508 -54.8790  0.00  0.00     0.000 C
ATOM     65  O5  Z9K D   4      11.816   2.850 -55.9920  0.00  0.00     0.000 O
ATOM     66   O  Z9K D   4      11.213   5.251 -52.7620  0.00  0.00     0.000 O
ATOM     67   C  Z9K D   4      10.644   6.549 -52.8230  0.00  0.00     0.000 C
BRANCH 61 68
ATOM     68   O  Z9K D   4       9.016   4.755 -54.8400  0.00  0.00     0.000 O
ATOM     69   O  Z9K D   4       8.418   4.003 -52.4680  0.00  0.00     0.000 OA
ATOM     70   S  Z9K D   4       8.080   3.874 -53.8540  0.00  0.00     0.000 S
ATOM     71   O  Z9K D   4       7.719   2.659 -54.5170  0.00  0.00     0.000 OA
ATOM     72   O  Z9K D   4       7.198   4.919 -54.2620  0.00  0.00     0.000 OA
ENDBRANCH 61 68
BRANCH 64 73
ATOM     73   C  Z9K D   4      14.145   2.113 -55.1720  0.00  0.00     0.000 C
ATOM     74   O  Z9K D   4      14.608   2.136 -56.3490  0.00  0.00     0.000 O
ATOM     75   O  Z9K D   4      14.931   1.761 -54.2580  0.00  0.00     0.000 OA
ENDBRANCH 64 73
BRANCH 60 76
ATOM     76  O4  Z9L D   5      10.070   1.579 -55.9050  0.00  0.00     0.000 O
BRANCH 76 80
ATOM     77  C1  Z9L D   5       9.146  -0.978 -58.8350  0.00  0.00     0.000 C
ATOM     78  C2  Z9L D   5      10.589  -1.403 -58.2770  0.00  0.00     0.000 C
ATOM     79  C3  Z9L D   5      10.773  -0.644 -56.7770  0.00  0.00     0.000 C
ATOM     80  C4  Z9L D   5      10.165   0.852 -57.1030  0.00  0.00     0.000 C
ATOM     81  C5  Z9L D   5       8.820   1.299 -57.8710  0.00  0.00     0.000 C
ATOM     82  O5  Z9L D   5       8.692   0.426 -59.0030  0.00  0.00     0.000 O
ATOM     83   C  Z9L D   5       6.787  -1.440 -58.5000  0.00  0.00     0.000 C
ATOM     84   C  Z9L D   5       6.787  -1.440 -58.5000  0.00  0.00     0.000 C
BRANCH 78 85
ATOM     85   O  Z9L D   5      10.592  -2.783 -58.0940  0.00  0.00     0.000 O
ATOM     86   O  Z9L D   5      11.580  -4.040 -59.1690  0.00  0.00     0.000 OA
ATOM     87   S  Z9L D   5      11.672  -2.615 -59.2730  0.00  0.00     0.000 S
ATOM     88   O  Z9L D   5      12.997  -2.291 -58.8050  0.00  0.00     0.000 OA
ATOM     89   O  Z9L D   5      11.159  -2.300 -60.5620  0.00  0.00     0.000 OA
ENDBRANCH 78 85
BRANCH 79 90
ATOM     90   O  Z9L D   5      12.111  -0.375 -56.5060  0.00  0.00     0.000 O
ATOM     91   S  Z9L D   5      11.759  -1.276 -55.2410  0.00  0.00     0.000 S
ATOM     92   O  Z9L D   5      11.222  -2.606 -55.3680  0.00  0.00     0.000 OA
ATOM     93   O  Z9L D   5      11.383  -0.427 -54.1390  0.00  0.00     0.000 O
ATOM     94   O  Z9L D   5      13.181  -1.396 -55.2150  0.00  0.00     0.000 OA
ENDBRANCH 79 90
BRANCH 81 95
ATOM     95   C  Z9L D   5       8.573   2.942 -58.0970  0.00  0.00     0.000 C
ATOM     96   S  Z9L D   5       8.152   4.354 -59.4370  0.00  0.00     0.000 S
ATOM     97   O  Z9L D   5       8.988   3.020 -59.4350  0.00  0.00     0.000 O
ATOM     98   O  Z9L D   5       8.903   5.316 -58.6720  0.00  0.00     0.000 OA
ATOM     99   O  Z9L D   5       6.746   4.205 -59.2650  0.00  0.00     0.000 OA
ATOM    100   O  Z9L D   5       8.623   4.389 -60.8000  0.00  0.00     0.000 O
ENDBRANCH 81 95
ENDBRANCH 76 80
ENDBRANCH 60 76
ENDBRANCH 59 63
ENDBRANCH 37 59
ENDBRANCH 36 40
ENDBRANCH 23 36
ENDBRANCH 22 26
ENDBRANCH 1 22
TORSDOF 19
ENDMDL
MODEL 92
REMARK VINA RESULT:      -5.2     35.474     41.886
ROOT
ATOM      1  C1  Z9H D   1      22.849   5.035 -48.6430  0.00  0.00     0.000 C
ATOM      2  C2  Z9H D   1      24.008   5.504 -47.7310  0.00  0.00     0.000 C
ATOM      3  C3  Z9H D   1      23.393   6.863 -47.2740  0.00  0.00     0.000 C
ATOM      4  C4  Z9H D   1      22.854   7.791 -48.4390  0.00  0.00     0.000 C
ATOM      5  C5  Z9H D   1      21.929   7.263 -49.6070  0.00  0.00     0.000 C
ATOM      6  O5  Z9H D   1      22.368   5.886 -49.7200  0.00  0.00     0.000 O
ATOM      7   O  Z9H D   1      24.292   7.591 -46.4340  0.00  0.00     0.000 O
ATOM      8   C  Z9H D   1      24.050   7.469 -45.0220  0.00  0.00     0.000 C
ATOM      9   O  Z9H D   1      22.151   8.858 -47.7930  0.00  0.00     0.000 O
ATOM     10   C  Z9H D   1      22.879  10.081 -47.6530  0.00  0.00     0.000 C
ENDROOT
BRANCH 2 11
ATOM     11   O  Z9H D   1      23.873   4.651 -46.6250  0.00  0.00     0.000 O
ATOM     12   O  Z9H D   1      25.124   3.320 -46.1550  0.00  0.00     0.000 OA
ATOM     13   S  Z9H D   1      25.272   4.224 -47.2460  0.00  0.00     0.000 S
ATOM     14   O  Z9H D   1      26.214   5.279 -47.0020  0.00  0.00     0.000 OA
ATOM     15   O  Z9H D   1      25.109   3.529 -48.5020  0.00  0.00     0.000 O
ENDBRANCH 2 11
BRANCH 5 16
ATOM     16   C  Z9H D   1      21.839   8.261 -50.9470  0.00  0.00     0.000 C
ATOM     17   S  Z9H D   1      21.597   8.294 -52.9420  0.00  0.00     0.000 S
ATOM     18   O  Z9H D   1      20.946   7.484 -51.7070  0.00  0.00     0.000 O
ATOM     19   O  Z9H D   1      22.971   7.982 -53.2100  0.00  0.00     0.000 O
ATOM     20   O  Z9H D   1      21.073   9.614 -52.9930  0.00  0.00     0.000 OA
ATOM     21   O  Z9H D   1      20.702   7.440 -53.6670  0.00  0.00     0.000 OA
ENDBRANCH 5 16
BRANCH 1 22
ATOM     22  O4  GU1 D   2      21.585   4.751 -47.9420  0.00  0.00     0.000 O
BRANCH 22 26
ATOM     23  C1  GU1 D   2      18.263   2.316 -47.8850  0.00  0.00     0.000 C
ATOM     24  C2  GU1 D   2      19.530   1.656 -48.4070  0.00  0.00     0.000 C
ATOM     25  C3  GU1 D   2      20.718   2.491 -48.0250  0.00  0.00     0.000 C
ATOM     26  C4  GU1 D   2      20.536   3.933 -48.4750  0.00  0.00     0.000 C
ATOM     27  C5  GU1 D   2      19.186   4.468 -47.9870  0.00  0.00     0.000 C
ATOM     28  O5  GU1 D   2      18.127   3.624 -48.4280  0.00  0.00     0.000 O
ATOM     29   O  GU1 D   2      19.712   0.352 -47.8680  0.00  0.00     0.000 O
ATOM     30   C  GU1 D   2      19.250  -0.690 -48.7160  0.00  0.00     0.000 C
ATOM     31   C  GU1 D   2      22.724   1.175 -47.8330  0.00  0.00     0.000 C
ATOM     32   O  GU1 D   2      21.875   1.953 -48.6730  0.00  0.00     0.000 O
BRANCH 27 33
ATOM     33   C  GU1 D   2      18.924   5.857 -48.5190  0.00  0.00     0.000 C
ATOM     34   O  GU1 D   2      19.049   6.798 -47.7620  0.00  0.00     0.000 OA
ATOM     35   O  GU1 D   2      18.599   6.024 -49.6840  0.00  0.00     0.000 O
ENDBRANCH 27 33
BRANCH 23 36
ATOM     36  O4  GU6 D   3      16.973   1.847 -48.3260  0.00  0.00     0.000 O
BRANCH 36 40
ATOM     37  C1  GU6 D   3      13.656   0.694 -50.4150  0.00  0.00     0.000 C
ATOM     38  C2  GU6 D   3      13.529   2.063 -49.7600  0.00  0.00     0.000 C
ATOM     39  C3  GU6 D   3      14.877   2.509 -49.2550  0.00  0.00     0.000 C
ATOM     40  C4  GU6 D   3      15.966   1.526 -49.2650  0.00  0.00     0.000 C
ATOM     41  C5  GU6 D   3      15.405   0.119 -48.8770  0.00  0.00     0.000 C
ATOM     42  O5  GU6 D   3      14.138  -0.227 -49.4480  0.00  0.00     0.000 O
BRANCH 38 43
ATOM     43   O  GU6 D   3      13.021   3.010 -50.6800  0.00  0.00     0.000 O
ATOM     44   S  GU6 D   3      11.505   3.157 -50.6590  0.00  0.00     0.000 S
ATOM     45   O  GU6 D   3      10.919   2.071 -51.4640  0.00  0.00     0.000 OA
ATOM     46   O  GU6 D   3      11.040   3.040 -49.2660  0.00  0.00     0.000 O
ATOM     47   O  GU6 D   3      11.152   4.467 -51.1970  0.00  0.00     0.000 OA
ENDBRANCH 38 43
BRANCH 39 48
ATOM     48   O  GU6 D   3      15.143   3.875 -49.0030  0.00  0.00     0.000 O
ATOM     49   S  GU6 D   3      14.778   4.739 -47.7960  0.00  0.00     0.000 S
ATOM     50   O  GU6 D   3      15.286   4.125 -46.5630  0.00  0.00     0.000 OA
ATOM     51   O  GU6 D   3      15.461   6.009 -48.0770  0.00  0.00     0.000 OA
ATOM     52   O  GU6 D   3      13.306   4.870 -47.7270  0.00  0.00     0.000 O
ENDBRANCH 39 48
BRANCH 41 53
ATOM     53   C  GU6 D   3      16.018  -0.936 -47.9960  0.00  0.00     0.000 C
ATOM     54   O  GU6 D   3      15.059  -1.940 -48.2050  0.00  0.00     0.000 O
ATOM     55   S  GU6 D   3      15.133  -3.260 -47.4260  0.00  0.00     0.000 S
ATOM     56   O  GU6 D   3      14.887  -2.931 -46.0030  0.00  0.00     0.000 O
ATOM     57   O  GU6 D   3      14.092  -4.164 -47.9370  0.00  0.00     0.000 OA
ATOM     58   O  GU6 D   3      16.494  -3.808 -47.6180  0.00  0.00     0.000 OA
ENDBRANCH 41 53
BRANCH 37 59
ATOM     59  O4  Z9K D   4      14.356   0.427 -51.6480  0.00  0.00     0.000 O
BRANCH 59 63
ATOM     60  C1  Z9K D   4      15.905   0.553 -55.2580  0.00  0.00     0.000 C
ATOM     61  C2  Z9K D   4      16.008   2.044 -54.8340  0.00  0.00     0.000 C
ATOM     62  C3  Z9K D   4      15.553   1.957 -53.3130  0.00  0.00     0.000 C
ATOM     63  C4  Z9K D   4      14.284   1.101 -52.9380  0.00  0.00     0.000 C
ATOM     64  C5  Z9K D   4      13.943  -0.053 -53.8940  0.00  0.00     0.000 C
ATOM     65  O5  Z9K D   4      15.247  -0.470 -54.3740  0.00  0.00     0.000 O
ATOM     66   O  Z9K D   4      15.321   3.245 -52.7140  0.00  0.00     0.000 O
ATOM     67   C  Z9K D   4      16.483   3.865 -52.1890  0.00  0.00     0.000 C
BRANCH 61 68
ATOM     68   O  Z9K D   4      17.369   2.375 -54.8200  0.00  0.00     0.000 O
ATOM     69   O  Z9K D   4      15.937   4.380 -55.5120  0.00  0.00     0.000 OA
ATOM     70   S  Z9K D   4      16.802   3.342 -55.9890  0.00  0.00     0.000 S
ATOM     71   O  Z9K D   4      16.607   2.571 -57.1780  0.00  0.00     0.000 OA
ATOM     72   O  Z9K D   4      18.170   3.739 -55.8990  0.00  0.00     0.000 OA
ENDBRANCH 61 68
BRANCH 64 73
ATOM     73   C  Z9K D   4      13.040  -1.093 -53.1970  0.00  0.00     0.000 C
ATOM     74   O  Z9K D   4      11.811  -0.866 -52.9980  0.00  0.00     0.000 O
ATOM     75   O  Z9K D   4      13.485  -2.201 -52.8100  0.00  0.00     0.000 OA
ENDBRANCH 64 73
BRANCH 60 76
ATOM     76  O4  Z9L D   5      15.377   0.005 -56.4780  0.00  0.00     0.000 O
BRANCH 76 80
ATOM     77  C1  Z9L D   5      15.960  -2.792 -59.2730  0.00  0.00     0.000 C
ATOM     78  C2  Z9L D   5      14.558  -3.119 -58.5660  0.00  0.00     0.000 C
ATOM     79  C3  Z9L D   5      14.096  -1.721 -57.7340  0.00  0.00     0.000 C
ATOM     80  C4  Z9L D   5      15.531  -1.260 -57.0700  0.00  0.00     0.000 C
ATOM     81  C5  Z9L D   5      17.004  -1.147 -57.7170  0.00  0.00     0.000 C
ATOM     82  O5  Z9L D   5      17.165  -2.298 -58.5590  0.00  0.00     0.000 O
ATOM     83   C  Z9L D   5      16.879  -1.569 -61.1570  0.00  0.00     0.000 C
ATOM     84   C  Z9L D   5      16.879  -1.569 -61.1570  0.00  0.00     0.000 C
BRANCH 78 85
ATOM     85   O  Z9L D   5      13.624  -3.387 -59.5630  0.00  0.00     0.000 O
ATOM     86   O  Z9L D   5      12.840  -5.111 -59.9110  0.00  0.00     0.000 OA
ATOM     87   S  Z9L D   5      13.703  -4.805 -58.8110  0.00  0.00     0.000 S
ATOM     88   O  Z9L D   5      12.864  -4.891 -57.6420  0.00  0.00     0.000 OA
ATOM     89   O  Z9L D   5      14.879  -5.574 -59.0320  0.00  0.00     0.000 OA
ENDBRANCH 78 85
BRANCH 79 90
ATOM     90   O  Z9L D   5      13.329  -2.028 -56.6130  0.00  0.00     0.000 O
ATOM     91   S  Z9L D   5      12.304  -1.089 -57.3890  0.00  0.00     0.000 S
ATOM     92   O  Z9L D   5      11.885  -1.355 -58.7400  0.00  0.00     0.000 OA
ATOM     93   O  Z9L D   5      12.437   0.264 -56.9060  0.00  0.00     0.000 O
ATOM     94   O  Z9L D   5      11.387  -1.757 -56.5230  0.00  0.00     0.000 OA
ENDBRANCH 79 90
BRANCH 81 95
ATOM     95   C  Z9L D   5      18.263  -0.723 -56.6940  0.00  0.00     0.000 C
ATOM     96   S  Z9L D   5      19.748  -1.423 -55.5660  0.00  0.00     0.000 S
ATOM     97   O  Z9L D   5      18.287  -1.892 -55.9190  0.00  0.00     0.000 O
ATOM     98   O  Z9L D   5      19.619  -0.294 -54.6820  0.00  0.00     0.000 OA
ATOM     99   O  Z9L D   5      20.675  -1.415 -56.6480  0.00  0.00     0.000 OA
ATOM    100   O  Z9L D   5      19.708  -2.628 -54.7750  0.00  0.00     0.000 O
ENDBRANCH 81 95
ENDBRANCH 76 80
ENDBRANCH 60 76
ENDBRANCH 59 63
ENDBRANCH 37 59
ENDBRANCH 36 40
ENDBRANCH 23 36
ENDBRANCH 22 26
ENDBRANCH 1 22
TORSDOF 19
ENDMDL
MODEL 93
REMARK VINA RESULT:      -5.2      7.513     15.371
ROOT
ATOM      1  C1  Z9H D   1      31.828  28.853 -21.7040  0.00  0.00     0.000 C
ATOM      2  C2  Z9H D   1      32.148  28.960 -23.2140  0.00  0.00     0.000 C
ATOM      3  C3  Z9H D   1      31.957  30.500 -23.3730  0.00  0.00     0.000 C
ATOM      4  C4  Z9H D   1      30.601  31.079 -22.7910  0.00  0.00     0.000 C
ATOM      5  C5  Z9H D   1      30.053  30.715 -21.3540  0.00  0.00     0.000 C
ATOM      6  O5  Z9H D   1      30.576  29.374 -21.1780  0.00  0.00     0.000 O
ATOM      7   O  Z9H D   1      32.132  30.915 -24.7290  0.00  0.00     0.000 O
ATOM      8   C  Z9H D   1      33.427  31.453 -25.0450  0.00  0.00     0.000 C
ATOM      9   O  Z9H D   1      30.733  32.504 -22.8440  0.00  0.00     0.000 O
ATOM     10   C  Z9H D   1      30.099  33.141 -23.9570  0.00  0.00     0.000 C
ENDROOT
BRANCH 2 11
ATOM     11   O  Z9H D   1      33.537  28.761 -23.2330  0.00  0.00     0.000 O
ATOM     12   O  Z9H D   1      34.378  27.221 -23.9260  0.00  0.00     0.000 OA
ATOM     13   S  Z9H D   1      32.973  27.457 -23.9440  0.00  0.00     0.000 S
ATOM     14   O  Z9H D   1      32.465  27.831 -25.2330  0.00  0.00     0.000 OA
ATOM     15   O  Z9H D   1      32.303  26.585 -23.0070  0.00  0.00     0.000 O
ENDBRANCH 2 11
BRANCH 5 16
ATOM     16   C  Z9H D   1      28.434  31.058 -21.1050  0.00  0.00     0.000 C
ATOM     17   S  Z9H D   1      26.691  31.449 -22.0270  0.00  0.00     0.000 S
ATOM     18   O  Z9H D   1      27.927  30.437 -22.2620  0.00  0.00     0.000 O
ATOM     19   O  Z9H D   1      27.000  32.835 -22.2310  0.00  0.00     0.000 O
ATOM     20   O  Z9H D   1      25.869  30.981 -20.9660  0.00  0.00     0.000 OA
ATOM     21   O  Z9H D   1      26.248  30.815 -23.2350  0.00  0.00     0.000 OA
ENDBRANCH 5 16
BRANCH 1 22
ATOM     22  O4  GU1 D   2      32.792  29.527 -20.8170  0.00  0.00     0.000 O
BRANCH 22 26
ATOM     23  C1  GU1 D   2      34.340  29.521 -17.0000  0.00  0.00     0.000 C
ATOM     24  C2  GU1 D   2      33.790  28.183 -17.4690  0.00  0.00     0.000 C
ATOM     25  C3  GU1 D   2      33.619  28.211 -18.9600  0.00  0.00     0.000 C
ATOM     26  C4  GU1 D   2      32.788  29.412 -19.3890  0.00  0.00     0.000 C
ATOM     27  C5  GU1 D   2      33.365  30.693 -18.7800  0.00  0.00     0.000 C
ATOM     28  O5  GU1 D   2      33.455  30.575 -17.3630  0.00  0.00     0.000 O
ATOM     29   O  GU1 D   2      34.660  27.106 -17.1420  0.00  0.00     0.000 O
ATOM     30   C  GU1 D   2      34.308  26.425 -15.9460  0.00  0.00     0.000 C
ATOM     31   C  GU1 D   2      33.774  26.014 -19.9300  0.00  0.00     0.000 C
ATOM     32   O  GU1 D   2      32.938  27.017 -19.3590  0.00  0.00     0.000 O
BRANCH 27 33
ATOM     33   C  GU1 D   2      32.492  31.886 -19.0900  0.00  0.00     0.000 C
ATOM     34   O  GU1 D   2      31.535  32.103 -18.3740  0.00  0.00     0.000 OA
ATOM     35   O  GU1 D   2      32.748  32.614 -20.0360  0.00  0.00     0.000 O
ENDBRANCH 27 33
BRANCH 23 36
ATOM     36  O4  GU6 D   3      34.364  29.838 -15.5940  0.00  0.00     0.000 O
BRANCH 36 40
ATOM     37  C1  GU6 D   3      34.184  31.586 -11.9050  0.00  0.00     0.000 C
ATOM     38  C2  GU6 D   3      35.590  31.179 -12.3290  0.00  0.00     0.000 C
ATOM     39  C3  GU6 D   3      35.589  30.804 -13.7870  0.00  0.00     0.000 C
ATOM     40  C4  GU6 D   3      34.289  30.674 -14.4560  0.00  0.00     0.000 C
ATOM     41  C5  GU6 D   3      33.258  30.026 -13.4740  0.00  0.00     0.000 C
ATOM     42  O5  GU6 D   3      33.311  30.487 -12.1200  0.00  0.00     0.000 O
BRANCH 38 43
ATOM     43   O  GU6 D   3      36.503  32.236 -12.1030  0.00  0.00     0.000 O
ATOM     44   S  GU6 D   3      37.248  32.151 -10.7770  0.00  0.00     0.000 S
ATOM     45   O  GU6 D   3      36.378  32.685  -9.7160  0.00  0.00     0.000 OA
ATOM     46   O  GU6 D   3      37.550  30.735 -10.4970  0.00  0.00     0.000 O
ATOM     47   O  GU6 D   3      38.487  32.915 -10.8840  0.00  0.00     0.000 OA
ENDBRANCH 38 43
BRANCH 39 48
ATOM     48   O  GU6 D   3      36.787  30.805 -14.5390  0.00  0.00     0.000 O
ATOM     49   S  GU6 D   3      37.872  29.735 -14.6580  0.00  0.00     0.000 S
ATOM     50   O  GU6 D   3      37.280  28.461 -15.0810  0.00  0.00     0.000 OA
ATOM     51   O  GU6 D   3      38.762  30.277 -15.6930  0.00  0.00     0.000 OA
ATOM     52   O  GU6 D   3      38.533  29.575 -13.3440  0.00  0.00     0.000 O
ENDBRANCH 39 48
BRANCH 41 53
ATOM     53   C  GU6 D   3      32.202  28.992 -13.7570  0.00  0.00     0.000 C
ATOM     54   O  GU6 D   3      31.770  28.794 -12.4350  0.00  0.00     0.000 O
ATOM     55   S  GU6 D   3      30.731  27.713 -12.1090  0.00  0.00     0.000 S
ATOM     56   O  GU6 D   3      31.370  26.407 -12.3930  0.00  0.00     0.000 O
ATOM     57   O  GU6 D   3      30.375  27.820 -10.6870  0.00  0.00     0.000 OA
ATOM     58   O  GU6 D   3      29.568  27.941 -12.9960  0.00  0.00     0.000 OA
ENDBRANCH 41 53
BRANCH 37 59
ATOM     59  O4  Z9K D   4      33.496  32.774 -12.3490  0.00  0.00     0.000 O
BRANCH 59 63
ATOM     60  C1  Z9K D   4      32.456  36.406 -13.4320  0.00  0.00     0.000 C
ATOM     61  C2  Z9K D   4      33.715  36.178 -14.3130  0.00  0.00     0.000 C
ATOM     62  C3  Z9K D   4      34.023  34.648 -14.0090  0.00  0.00     0.000 C
ATOM     63  C4  Z9K D   4      33.982  34.137 -12.5180  0.00  0.00     0.000 C
ATOM     64  C5  Z9K D   4      33.081  34.929 -11.5590  0.00  0.00     0.000 C
ATOM     65  O5  Z9K D   4      32.007  35.383 -12.4250  0.00  0.00     0.000 O
ATOM     66   O  Z9K D   4      35.298  34.213 -14.5140  0.00  0.00     0.000 O
ATOM     67   C  Z9K D   4      35.281  33.798 -15.8700  0.00  0.00     0.000 C
BRANCH 61 68
ATOM     68   O  Z9K D   4      33.299  36.239 -15.6490  0.00  0.00     0.000 O
ATOM     69   O  Z9K D   4      35.676  37.147 -15.3780  0.00  0.00     0.000 OA
ATOM     70   S  Z9K D   4      34.301  37.508 -15.5530  0.00  0.00     0.000 S
ATOM     71   O  Z9K D   4      33.628  38.584 -14.8930  0.00  0.00     0.000 OA
ATOM     72   O  Z9K D   4      33.945  37.501 -16.9350  0.00  0.00     0.000 OA
ENDBRANCH 61 68
BRANCH 64 73
ATOM     73   C  Z9K D   4      32.726  34.085 -10.3170  0.00  0.00     0.000 C
ATOM     74   O  Z9K D   4      31.721  33.315 -10.3120  0.00  0.00     0.000 O
ATOM     75   O  Z9K D   4      33.419  34.123  -9.2700  0.00  0.00     0.000 OA
ENDBRANCH 64 73
BRANCH 60 76
ATOM     76  O4  Z9L D   5      32.140  37.533 -12.5970  0.00  0.00     0.000 O
BRANCH 76 80
ATOM     77  C1  Z9L D   5      29.103  39.715 -11.1860  0.00  0.00     0.000 C
ATOM     78  C2  Z9L D   5      29.870  39.102  -9.9180  0.00  0.00     0.000 C
ATOM     79  C3  Z9L D   5      31.382  38.581 -10.4700  0.00  0.00     0.000 C
ATOM     80  C4  Z9L D   5      30.970  37.873 -11.8990  0.00  0.00     0.000 C
ATOM     81  C5  Z9L D   5      30.009  38.382 -13.0900  0.00  0.00     0.000 C
ATOM     82  O5  Z9L D   5      28.870  38.986 -12.4590  0.00  0.00     0.000 O
ATOM     83   C  Z9L D   5      29.080  41.688 -12.6000  0.00  0.00     0.000 C
ATOM     84   C  Z9L D   5      29.080  41.688 -12.6000  0.00  0.00     0.000 C
BRANCH 78 85
ATOM     85   O  Z9L D   5      30.050  40.121  -8.9880  0.00  0.00     0.000 O
ATOM     86   O  Z9L D   5      29.242  40.181  -7.2400  0.00  0.00     0.000 OA
ATOM     87   S  Z9L D   5      29.161  39.078  -8.1490  0.00  0.00     0.000 S
ATOM     88   O  Z9L D   5      29.929  38.026  -7.5300  0.00  0.00     0.000 OA
ATOM     89   O  Z9L D   5      27.787  38.987  -8.5050  0.00  0.00     0.000 OA
ENDBRANCH 78 85
BRANCH 79 90
ATOM     90   O  Z9L D   5      31.851  37.504  -9.7230  0.00  0.00     0.000 O
ATOM     91   S  Z9L D   5      33.075  38.507  -9.5420  0.00  0.00     0.000 S
ATOM     92   O  Z9L D   5      32.910  39.836  -9.0130  0.00  0.00     0.000 OA
ATOM     93   O  Z9L D   5      34.074  38.226 -10.5430  0.00  0.00     0.000 O
ATOM     94   O  Z9L D   5      33.329  37.640  -8.4370  0.00  0.00     0.000 OA
ENDBRANCH 79 90
BRANCH 81 95
ATOM     95   C  Z9L D   5      29.750  37.332 -14.3710  0.00  0.00     0.000 C
ATOM     96   S  Z9L D   5      28.370  36.323 -15.3940  0.00  0.00     0.000 S
ATOM     97   O  Z9L D   5      28.591  36.711 -13.8830  0.00  0.00     0.000 O
ATOM     98   O  Z9L D   5      29.337  35.302 -15.7050  0.00  0.00     0.000 OA
ATOM     99   O  Z9L D   5      28.126  37.408 -16.2820  0.00  0.00     0.000 OA
ATOM    100   O  Z9L D   5      27.203  35.688 -14.8320  0.00  0.00     0.000 O
ENDBRANCH 81 95
ENDBRANCH 76 80
ENDBRANCH 60 76
ENDBRANCH 59 63
ENDBRANCH 37 59
ENDBRANCH 36 40
ENDBRANCH 23 36
ENDBRANCH 22 26
ENDBRANCH 1 22
TORSDOF 19
ENDMDL
MODEL 94
REMARK VINA RESULT:      -5.2     32.027     38.828
ROOT
ATOM      1  C1  Z9H D   1      -3.710  22.681 -21.0020  0.00  0.00     0.000 C
ATOM      2  C2  Z9H D   1      -4.697  22.616 -22.1930  0.00  0.00     0.000 C
ATOM      3  C3  Z9H D   1      -4.753  21.065 -22.3500  0.00  0.00     0.000 C
ATOM      4  C4  Z9H D   1      -3.347  20.338 -22.4230  0.00  0.00     0.000 C
ATOM      5  C5  Z9H D   1      -2.168  20.634 -21.4140  0.00  0.00     0.000 C
ATOM      6  O5  Z9H D   1      -2.415  22.023 -21.0810  0.00  0.00     0.000 O
ATOM      7   O  Z9H D   1      -5.572  20.678 -23.4550  0.00  0.00     0.000 O
ATOM      8   C  Z9H D   1      -6.914  20.287 -23.1210  0.00  0.00     0.000 C
ATOM      9   O  Z9H D   1      -3.630  18.937 -22.3450  0.00  0.00     0.000 O
ATOM     10   C  Z9H D   1      -3.643  18.239 -23.5940  0.00  0.00     0.000 C
ENDROOT
BRANCH 2 11
ATOM     11   O  Z9H D   1      -5.912  22.967 -21.5850  0.00  0.00     0.000 O
ATOM     12   O  Z9H D   1      -6.884  24.533 -21.9850  0.00  0.00     0.000 OA
ATOM     13   S  Z9H D   1      -5.675  24.141 -22.6280  0.00  0.00     0.000 S
ATOM     14   O  Z9H D   1      -5.865  23.615 -23.9500  0.00  0.00     0.000 OA
ATOM     15   O  Z9H D   1      -4.588  25.003 -22.2240  0.00  0.00     0.000 O
ENDBRANCH 2 11
BRANCH 5 16
ATOM     16   C  Z9H D   1      -0.658  20.115 -21.9160  0.00  0.00     0.000 C
ATOM     17   S  Z9H D   1       0.683  20.207 -23.4100  0.00  0.00     0.000 S
ATOM     18   O  Z9H D   1      -0.308  21.247 -22.6740  0.00  0.00     0.000 O
ATOM     19   O  Z9H D   1       0.027  19.197 -24.1900  0.00  0.00     0.000 O
ATOM     20   O  Z9H D   1       1.815  19.946 -22.5910  0.00  0.00     0.000 OA
ATOM     21   O  Z9H D   1       0.963  21.383 -24.1810  0.00  0.00     0.000 OA
ENDBRANCH 5 16
BRANCH 1 22
ATOM     22  O4  GU1 D   2      -4.222  22.113 -19.7430  0.00  0.00     0.000 O
BRANCH 22 26
ATOM     23  C1  GU1 D   2      -4.326  22.598 -15.6530  0.00  0.00     0.000 C
ATOM     24  C2  GU1 D   2      -4.232  23.891 -16.4480  0.00  0.00     0.000 C
ATOM     25  C3  GU1 D   2      -4.585  23.620 -17.8820  0.00  0.00     0.000 C
ATOM     26  C4  GU1 D   2      -3.746  22.481 -18.4430  0.00  0.00     0.000 C
ATOM     27  C5  GU1 D   2      -3.827  21.264 -17.5160  0.00  0.00     0.000 C
ATOM     28  O5  GU1 D   2      -3.442  21.621 -16.1910  0.00  0.00     0.000 O
ATOM     29   O  GU1 D   2      -5.119  24.886 -15.9520  0.00  0.00     0.000 O
ATOM     30   C  GU1 D   2      -4.507  25.810 -15.0620  0.00  0.00     0.000 C
ATOM     31   C  GU1 D   2      -5.472  25.570 -18.9790  0.00  0.00     0.000 C
ATOM     32   O  GU1 D   2      -4.319  24.802 -18.6440  0.00  0.00     0.000 O
BRANCH 27 33
ATOM     33   C  GU1 D   2      -2.910  20.159 -17.9820  0.00  0.00     0.000 C
ATOM     34   O  GU1 D   2      -1.728  20.406 -18.1130  0.00  0.00     0.000 OA
ATOM     35   O  GU1 D   2      -3.350  19.045 -18.2170  0.00  0.00     0.000 O
ENDBRANCH 27 33
BRANCH 23 36
ATOM     36  O4  GU6 D   3      -3.803  22.536 -14.3110  0.00  0.00     0.000 O
BRANCH 36 40
ATOM     37  C1  GU6 D   3      -3.905  20.800 -10.6140  0.00  0.00     0.000 C
ATOM     38  C2  GU6 D   3      -2.576  20.632 -11.3400  0.00  0.00     0.000 C
ATOM     39  C3  GU6 D   3      -2.547  21.525 -12.5530  0.00  0.00     0.000 C
ATOM     40  C4  GU6 D   3      -3.796  22.187 -12.9420  0.00  0.00     0.000 C
ATOM     41  C5  GU6 D   3      -4.998  21.213 -12.7090  0.00  0.00     0.000 C
ATOM     42  O5  GU6 D   3      -4.954  20.443 -11.5020  0.00  0.00     0.000 O
BRANCH 38 43
ATOM     43   O  GU6 D   3      -1.497  20.947 -10.4810  0.00  0.00     0.000 O
ATOM     44   S  GU6 D   3      -1.025  19.789  -9.6120  0.00  0.00     0.000 S
ATOM     45   O  GU6 D   3      -1.916  19.687  -8.4440  0.00  0.00     0.000 OA
ATOM     46   O  GU6 D   3      -1.106  18.546 -10.4000  0.00  0.00     0.000 O
ATOM     47   O  GU6 D   3       0.356  20.036  -9.2090  0.00  0.00     0.000 OA
ENDBRANCH 38 43
BRANCH 39 48
ATOM     48   O  GU6 D   3      -1.320  21.896 -13.1520  0.00  0.00     0.000 O
ATOM     49   S  GU6 D   3      -0.592  23.239 -13.1460  0.00  0.00     0.000 S
ATOM     50   O  GU6 D   3      -0.375  23.691 -11.7670  0.00  0.00     0.000 OA
ATOM     51   O  GU6 D   3       0.681  22.931 -13.8110  0.00  0.00     0.000 OA
ATOM     52   O  GU6 D   3      -1.409  24.230 -13.8810  0.00  0.00     0.000 O
ENDBRANCH 39 48
BRANCH 41 53
ATOM     53   C  GU6 D   3      -6.210  20.980 -13.5710  0.00  0.00     0.000 C
ATOM     54   O  GU6 D   3      -5.855  19.712 -14.0600  0.00  0.00     0.000 O
ATOM     55   S  GU6 D   3      -6.721  19.016 -15.1180  0.00  0.00     0.000 S
ATOM     56   O  GU6 D   3      -6.623  19.829 -16.3530  0.00  0.00     0.000 O
ATOM     57   O  GU6 D   3      -6.189  17.664 -15.3430  0.00  0.00     0.000 OA
ATOM     58   O  GU6 D   3      -8.109  18.993 -14.6050  0.00  0.00     0.000 OA
ENDBRANCH 41 53
BRANCH 37 59
ATOM     59  O4  Z9K D   4      -4.322  21.991  -9.9140  0.00  0.00     0.000 O
BRANCH 59 63
ATOM     60  C1  Z9K D   4      -5.409  23.748  -6.5710  0.00  0.00     0.000 C
ATOM     61  C2  Z9K D   4      -5.889  22.293  -6.3150  0.00  0.00     0.000 C
ATOM     62  C3  Z9K D   4      -5.285  21.549  -7.5850  0.00  0.00     0.000 C
ATOM     63  C4  Z9K D   4      -5.442  22.209  -9.0080  0.00  0.00     0.000 C
ATOM     64  C5  Z9K D   4      -5.590  23.738  -9.0300  0.00  0.00     0.000 C
ATOM     65  O5  Z9K D   4      -4.801  24.155  -7.8850  0.00  0.00     0.000 O
ATOM     66   O  Z9K D   4      -5.775  20.206  -7.7440  0.00  0.00     0.000 O
ATOM     67   C  Z9K D   4      -5.061  19.230  -7.0040  0.00  0.00     0.000 C
BRANCH 61 68
ATOM     68   O  Z9K D   4      -5.179  21.815  -5.2050  0.00  0.00     0.000 O
ATOM     69   O  Z9K D   4      -7.521  20.789  -5.3190  0.00  0.00     0.000 OA
ATOM     70   S  Z9K D   4      -6.707  21.773  -4.6700  0.00  0.00     0.000 S
ATOM     71   O  Z9K D   4      -7.116  23.099  -4.3220  0.00  0.00     0.000 OA
ATOM     72   O  Z9K D   4      -5.984  21.198  -3.5820  0.00  0.00     0.000 OA
ENDBRANCH 61 68
BRANCH 64 73
ATOM     73   C  Z9K D   4      -5.236  24.304 -10.4220  0.00  0.00     0.000 C
ATOM     74   O  Z9K D   4      -6.046  24.219 -11.3900  0.00  0.00     0.000 O
ATOM     75   O  Z9K D   4      -4.139  24.872 -10.6440  0.00  0.00     0.000 OA
ENDBRANCH 64 73
BRANCH 60 76
ATOM     76  O4  Z9L D   5      -6.142  24.974  -6.4010  0.00  0.00     0.000 O
BRANCH 76 80
ATOM     77  C1  Z9L D   5      -6.030  28.690  -4.9340  0.00  0.00     0.000 C
ATOM     78  C2  Z9L D   5      -6.060  28.817  -6.5330  0.00  0.00     0.000 C
ATOM     79  C3  Z9L D   5      -6.565  27.317  -7.1290  0.00  0.00     0.000 C
ATOM     80  C4  Z9L D   5      -5.709  26.289  -6.1670  0.00  0.00     0.000 C
ATOM     81  C5  Z9L D   5      -5.480  26.284  -4.5710  0.00  0.00     0.000 C
ATOM     82  O5  Z9L D   5      -5.273  27.652  -4.1880  0.00  0.00     0.000 O
ATOM     83   C  Z9L D   5      -7.523  28.620  -3.0220  0.00  0.00     0.000 C
ATOM     84   C  Z9L D   5      -7.523  28.620  -3.0220  0.00  0.00     0.000 C
BRANCH 78 85
ATOM     85   O  Z9L D   5      -7.002  29.783  -6.8720  0.00  0.00     0.000 O
ATOM     86   O  Z9L D   5      -6.591  31.544  -7.5350  0.00  0.00     0.000 OA
ATOM     87   S  Z9L D   5      -5.634  30.506  -7.3050  0.00  0.00     0.000 S
ATOM     88   O  Z9L D   5      -5.168  30.129  -8.6170  0.00  0.00     0.000 OA
ATOM     89   O  Z9L D   5      -4.808  30.985  -6.2500  0.00  0.00     0.000 OA
ENDBRANCH 78 85
BRANCH 79 90
ATOM     90   O  Z9L D   5      -6.030  27.066  -8.3900  0.00  0.00     0.000 O
ATOM     91   S  Z9L D   5      -7.582  27.044  -8.7490  0.00  0.00     0.000 S
ATOM     92   O  Z9L D   5      -8.456  28.150  -8.4570  0.00  0.00     0.000 OA
ATOM     93   O  Z9L D   5      -8.063  25.686  -8.7020  0.00  0.00     0.000 O
ATOM     94   O  Z9L D   5      -7.050  27.258 -10.0560  0.00  0.00     0.000 OA
ENDBRANCH 79 90
BRANCH 81 95
ATOM     95   C  Z9L D   5      -4.455  25.115  -3.9440  0.00  0.00     0.000 C
ATOM     96   S  Z9L D   5      -2.691  24.795  -3.0750  0.00  0.00     0.000 S
ATOM     97   O  Z9L D   5      -3.240  25.775  -4.1790  0.00  0.00     0.000 O
ATOM     98   O  Z9L D   5      -2.623  23.488  -3.6770  0.00  0.00     0.000 OA
ATOM     99   O  Z9L D   5      -3.218  24.981  -1.7650  0.00  0.00     0.000 OA
ATOM    100   O  Z9L D   5      -1.467  25.497  -3.3720  0.00  0.00     0.000 O
ENDBRANCH 81 95
ENDBRANCH 76 80
ENDBRANCH 60 76
ENDBRANCH 59 63
ENDBRANCH 37 59
ENDBRANCH 36 40
ENDBRANCH 23 36
ENDBRANCH 22 26
ENDBRANCH 1 22
TORSDOF 19
ENDMDL
MODEL 95
REMARK VINA RESULT:      -5.2     32.207     39.757
ROOT
ATOM      1  C1  Z9H D   1      -4.320  23.248 -22.0970  0.00  0.00     0.000 C
ATOM      2  C2  Z9H D   1      -5.221  22.988 -23.3280  0.00  0.00     0.000 C
ATOM      3  C3  Z9H D   1      -4.966  21.456 -23.4710  0.00  0.00     0.000 C
ATOM      4  C4  Z9H D   1      -3.443  21.019 -23.4760  0.00  0.00     0.000 C
ATOM      5  C5  Z9H D   1      -2.390  21.542 -22.4200  0.00  0.00     0.000 C
ATOM      6  O5  Z9H D   1      -2.919  22.857 -22.1140  0.00  0.00     0.000 O
ATOM      7   O  Z9H D   1      -5.643  20.914 -24.6060  0.00  0.00     0.000 O
ATOM      8   C  Z9H D   1      -6.896  20.268 -24.3250  0.00  0.00     0.000 C
ATOM      9   O  Z9H D   1      -3.449  19.589 -23.3940  0.00  0.00     0.000 O
ATOM     10   C  Z9H D   1      -3.271  18.899 -24.6340  0.00  0.00     0.000 C
ENDROOT
BRANCH 2 11
ATOM     11   O  Z9H D   1      -6.507  23.096 -22.7770  0.00  0.00     0.000 O
ATOM     12   O  Z9H D   1      -7.745  24.445 -23.2300  0.00  0.00     0.000 OA
ATOM     13   S  Z9H D   1      -6.455  24.296 -23.8160  0.00  0.00     0.000 S
ATOM     14   O  Z9H D   1      -6.481  23.747 -25.1420  0.00  0.00     0.000 OA
ATOM     15   O  Z9H D   1      -5.574  25.351 -23.3700  0.00  0.00     0.000 O
ENDBRANCH 2 11
BRANCH 5 16
ATOM     16   C  Z9H D   1      -0.787  21.327 -22.8510  0.00  0.00     0.000 C
ATOM     17   S  Z9H D   1       0.443  20.859 -24.3700  0.00  0.00     0.000 S
ATOM     18   O  Z9H D   1      -0.890  21.752 -24.1890  0.00  0.00     0.000 O
ATOM     19   O  Z9H D   1       0.247  19.446 -24.2190  0.00  0.00     0.000 O
ATOM     20   O  Z9H D   1       1.570  21.550 -23.8480  0.00  0.00     0.000 OA
ATOM     21   O  Z9H D   1       0.260  21.284 -25.7270  0.00  0.00     0.000 OA
ENDBRANCH 5 16
BRANCH 1 22
ATOM     22  O4  GU1 D   2      -4.766  22.594 -20.8550  0.00  0.00     0.000 O
BRANCH 22 26
ATOM     23  C1  GU1 D   2      -5.046  23.053 -16.7700  0.00  0.00     0.000 C
ATOM     24  C2  GU1 D   2      -5.077  24.351 -17.5630  0.00  0.00     0.000 C
ATOM     25  C3  GU1 D   2      -5.353  24.045 -19.0070  0.00  0.00     0.000 C
ATOM     26  C4  GU1 D   2      -4.374  23.011 -19.5410  0.00  0.00     0.000 C
ATOM     27  C5  GU1 D   2      -4.343  21.790 -18.6160  0.00  0.00     0.000 C
ATOM     28  O5  GU1 D   2      -4.041  22.185 -17.2810  0.00  0.00     0.000 O
ATOM     29   O  GU1 D   2      -6.086  25.237 -17.0950  0.00  0.00     0.000 O
ATOM     30   C  GU1 D   2      -5.611  26.221 -16.1880  0.00  0.00     0.000 C
ATOM     31   C  GU1 D   2      -6.425  25.883 -20.1320  0.00  0.00     0.000 C
ATOM     32   O  GU1 D   2      -5.202  25.252 -19.7610  0.00  0.00     0.000 O
BRANCH 27 33
ATOM     33   C  GU1 D   2      -3.291  20.799 -19.0550  0.00  0.00     0.000 C
ATOM     34   O  GU1 D   2      -2.123  21.085 -18.8910  0.00  0.00     0.000 OA
ATOM     35   O  GU1 D   2      -3.614  19.734 -19.5580  0.00  0.00     0.000 O
ENDBRANCH 27 33
BRANCH 23 36
ATOM     36  O4  GU6 D   3      -4.559  23.048 -15.4140  0.00  0.00     0.000 O
BRANCH 36 40
ATOM     37  C1  GU6 D   3      -4.915  21.699 -11.5740  0.00  0.00     0.000 C
ATOM     38  C2  GU6 D   3      -3.575  21.373 -12.2220  0.00  0.00     0.000 C
ATOM     39  C3  GU6 D   3      -3.440  22.137 -13.5130  0.00  0.00     0.000 C
ATOM     40  C4  GU6 D   3      -4.627  22.837 -14.0180  0.00  0.00     0.000 C
ATOM     41  C5  GU6 D   3      -5.901  21.972 -13.7430  0.00  0.00     0.000 C
ATOM     42  O5  GU6 D   3      -5.953  21.325 -12.4670  0.00  0.00     0.000 O
BRANCH 38 43
ATOM     43   O  GU6 D   3      -2.509  21.701 -11.3530  0.00  0.00     0.000 O
ATOM     44   S  GU6 D   3      -1.798  20.498 -10.7470  0.00  0.00     0.000 S
ATOM     45   O  GU6 D   3      -2.581  20.022  -9.5940  0.00  0.00     0.000 OA
ATOM     46   O  GU6 D   3      -1.726  19.433 -11.7640  0.00  0.00     0.000 O
ATOM     47   O  GU6 D   3      -0.453  20.899 -10.3470  0.00  0.00     0.000 OA
ENDBRANCH 38 43
BRANCH 39 48
ATOM     48   O  GU6 D   3      -2.170  22.365 -14.0930  0.00  0.00     0.000 O
ATOM     49   S  GU6 D   3      -1.259  23.589 -14.0070  0.00  0.00     0.000 S
ATOM     50   O  GU6 D   3      -0.987  23.920 -12.6030  0.00  0.00     0.000 OA
ATOM     51   O  GU6 D   3      -0.038  23.144 -14.6930  0.00  0.00     0.000 OA
ATOM     52   O  GU6 D   3      -1.922  24.729 -14.6770  0.00  0.00     0.000 O
ENDBRANCH 39 48
BRANCH 41 53
ATOM     53   C  GU6 D   3      -7.093  21.734 -14.6300  0.00  0.00     0.000 C
ATOM     54   O  GU6 D   3      -7.595  23.045 -14.6310  0.00  0.00     0.000 O
ATOM     55   S  GU6 D   3      -8.926  23.369 -15.3230  0.00  0.00     0.000 S
ATOM     56   O  GU6 D   3      -9.985  22.666 -14.5620  0.00  0.00     0.000 O
ATOM     57   O  GU6 D   3      -9.134  24.824 -15.2810  0.00  0.00     0.000 OA
ATOM     58   O  GU6 D   3      -8.836  22.856 -16.7090  0.00  0.00     0.000 OA
ENDBRANCH 41 53
BRANCH 37 59
ATOM     59  O4  Z9K D   4      -5.273  22.979 -11.0100  0.00  0.00     0.000 O
BRANCH 59 63
ATOM     60  C1  Z9K D   4      -5.881  26.076  -8.6690  0.00  0.00     0.000 C
ATOM     61  C2  Z9K D   4      -4.563  25.505  -8.0770  0.00  0.00     0.000 C
ATOM     62  C3  Z9K D   4      -4.224  24.369  -9.1360  0.00  0.00     0.000 C
ATOM     63  C4  Z9K D   4      -5.372  23.403  -9.6200  0.00  0.00     0.000 C
ATOM     64  C5  Z9K D   4      -6.800  23.963  -9.5480  0.00  0.00     0.000 C
ATOM     65  O5  Z9K D   4      -6.603  25.381  -9.7910  0.00  0.00     0.000 O
ATOM     66   O  Z9K D   4      -3.160  23.496  -8.7140  0.00  0.00     0.000 O
ATOM     67   C  Z9K D   4      -1.859  23.972  -9.0130  0.00  0.00     0.000 C
BRANCH 61 68
ATOM     68   O  Z9K D   4      -3.581  26.493  -8.2320  0.00  0.00     0.000 O
ATOM     69   O  Z9K D   4      -3.208  25.144  -6.0890  0.00  0.00     0.000 OA
ATOM     70   S  Z9K D   4      -3.694  26.383  -6.6200  0.00  0.00     0.000 S
ATOM     71   O  Z9K D   4      -4.869  27.074  -6.1860  0.00  0.00     0.000 OA
ATOM     72   O  Z9K D   4      -2.628  27.317  -6.7900  0.00  0.00     0.000 OA
ENDBRANCH 61 68
BRANCH 64 73
ATOM     73   C  Z9K D   4      -7.747  23.176 -10.4780  0.00  0.00     0.000 C
ATOM     74   O  Z9K D   4      -8.157  23.671 -11.5680  0.00  0.00     0.000 O
ATOM     75   O  Z9K D   4      -8.140  22.018 -10.1950  0.00  0.00     0.000 OA
ENDBRANCH 64 73
BRANCH 60 76
ATOM     76  O4  Z9L D   5      -7.084  26.452  -7.9760  0.00  0.00     0.000 O
BRANCH 76 80
ATOM     77  C1  Z9L D   5     -10.146  29.020  -8.0050  0.00  0.00     0.000 C
ATOM     78  C2  Z9L D   5     -10.764  27.549  -8.1750  0.00  0.00     0.000 C
ATOM     79  C3  Z9L D   5      -9.558  26.459  -7.7080  0.00  0.00     0.000 C
ATOM     80  C4  Z9L D   5      -8.231  27.135  -8.4110  0.00  0.00     0.000 C
ATOM     81  C5  Z9L D   5      -7.717  28.663  -8.4420  0.00  0.00     0.000 C
ATOM     82  O5  Z9L D   5      -8.882  29.477  -8.6370  0.00  0.00     0.000 O
ATOM     83   C  Z9L D   5      -9.582  30.639  -6.2860  0.00  0.00     0.000 C
ATOM     84   C  Z9L D   5      -9.582  30.639  -6.2860  0.00  0.00     0.000 C
BRANCH 78 85
ATOM     85   O  Z9L D   5     -11.846  27.433  -7.3080  0.00  0.00     0.000 O
ATOM     86   O  Z9L D   5     -13.691  27.317  -7.8490  0.00  0.00     0.000 OA
ATOM     87   S  Z9L D   5     -12.569  27.311  -8.7380  0.00  0.00     0.000 S
ATOM     88   O  Z9L D   5     -12.539  25.980  -9.2920  0.00  0.00     0.000 OA
ATOM     89   O  Z9L D   5     -12.684  28.510  -9.4940  0.00  0.00     0.000 OA
ENDBRANCH 78 85
BRANCH 79 90
ATOM     90   O  Z9L D   5      -9.678  25.249  -8.3860  0.00  0.00     0.000 O
ATOM     91   S  Z9L D   5      -9.743  24.721  -6.8860  0.00  0.00     0.000 S
ATOM     92   O  Z9L D   5     -10.713  25.205  -5.9390  0.00  0.00     0.000 OA
ATOM     93   O  Z9L D   5      -8.422  24.331  -6.4590  0.00  0.00     0.000 O
ATOM     94   O  Z9L D   5     -10.321  23.596  -7.5460  0.00  0.00     0.000 OA
ENDBRANCH 79 90
BRANCH 81 95
ATOM     95   C  Z9L D   5      -6.347  28.995  -9.3510  0.00  0.00     0.000 C
ATOM     96   S  Z9L D   5      -5.598  30.130 -10.8070  0.00  0.00     0.000 S
ATOM     97   O  Z9L D   5      -6.990  29.455 -10.5100  0.00  0.00     0.000 O
ATOM     98   O  Z9L D   5      -4.695  29.070 -11.1780  0.00  0.00     0.000 OA
ATOM     99   O  Z9L D   5      -5.203  31.159  -9.9060  0.00  0.00     0.000 OA
ATOM    100   O  Z9L D   5      -6.306  30.559 -11.9880  0.00  0.00     0.000 O
ENDBRANCH 81 95
ENDBRANCH 76 80
ENDBRANCH 60 76
ENDBRANCH 59 63
ENDBRANCH 37 59
ENDBRANCH 36 40
ENDBRANCH 23 36
ENDBRANCH 22 26
ENDBRANCH 1 22
TORSDOF 19
ENDMDL
MODEL 96
REMARK VINA RESULT:      -5.2      7.846     15.429
ROOT
ATOM      1  C1  Z9H D   1      31.438  28.173 -20.2010  0.00  0.00     0.000 C
ATOM      2  C2  Z9H D   1      31.607  28.367 -21.7270  0.00  0.00     0.000 C
ATOM      3  C3  Z9H D   1      31.094  29.837 -21.8220  0.00  0.00     0.000 C
ATOM      4  C4  Z9H D   1      29.701  30.117 -21.1200  0.00  0.00     0.000 C
ATOM      5  C5  Z9H D   1      29.356  29.625 -19.6580  0.00  0.00     0.000 C
ATOM      6  O5  Z9H D   1      30.153  28.417 -19.5650  0.00  0.00     0.000 O
ATOM      7   O  Z9H D   1      31.072  30.301 -23.1730  0.00  0.00     0.000 O
ATOM      8   C  Z9H D   1      32.201  31.098 -23.5690  0.00  0.00     0.000 C
ATOM      9   O  Z9H D   1      29.536  31.539 -21.1380  0.00  0.00     0.000 O
ATOM     10   C  Z9H D   1      28.697  32.050 -22.1790  0.00  0.00     0.000 C
ENDROOT
BRANCH 2 11
ATOM     11   O  Z9H D   1      33.002  28.457 -21.8570  0.00  0.00     0.000 O
ATOM     12   O  Z9H D   1      34.072  27.162 -22.7130  0.00  0.00     0.000 OA
ATOM     13   S  Z9H D   1      32.652  27.106 -22.6160  0.00  0.00     0.000 S
ATOM     14   O  Z9H D   1      31.974  27.437 -23.8370  0.00  0.00     0.000 OA
ATOM     15   O  Z9H D   1      32.250  26.066 -21.6970  0.00  0.00     0.000 O
ENDBRANCH 2 11
BRANCH 5 16
ATOM     16   C  Z9H D   1      27.726  29.624 -19.2770  0.00  0.00     0.000 C
ATOM     17   S  Z9H D   1      25.875  29.825 -20.0350  0.00  0.00     0.000 S
ATOM     18   O  Z9H D   1      27.245  29.104 -20.4930  0.00  0.00     0.000 O
ATOM     19   O  Z9H D   1      25.924  31.259 -20.0240  0.00  0.00     0.000 O
ATOM     20   O  Z9H D   1      25.232  29.060 -19.0250  0.00  0.00     0.000 OA
ATOM     21   O  Z9H D   1      25.456  29.313 -21.3060  0.00  0.00     0.000 OA
ENDBRANCH 5 16
BRANCH 1 22
ATOM     22  O4  GU1 D   2      32.313  29.016 -19.3690  0.00  0.00     0.000 O
BRANCH 22 26
ATOM     23  C1  GU1 D   2      34.120  29.260 -15.6740  0.00  0.00     0.000 C
ATOM     24  C2  GU1 D   2      33.791  27.847 -16.1340  0.00  0.00     0.000 C
ATOM     25  C3  GU1 D   2      33.505  27.858 -17.6070  0.00  0.00     0.000 C
ATOM     26  C4  GU1 D   2      32.438  28.888 -17.9470  0.00  0.00     0.000 C
ATOM     27  C5  GU1 D   2      32.814  30.248 -17.3520  0.00  0.00     0.000 C
ATOM     28  O5  GU1 D   2      33.032  30.135 -15.9480  0.00  0.00     0.000 O
ATOM     29   O  GU1 D   2      34.866  26.947 -15.8960  0.00  0.00     0.000 O
ATOM     30   C  GU1 D   2      34.736  26.201 -14.6940  0.00  0.00     0.000 C
ATOM     31   C  GU1 D   2      33.988  25.736 -18.6370  0.00  0.00     0.000 C
ATOM     32   O  GU1 D   2      33.027  26.562 -17.9840  0.00  0.00     0.000 O
BRANCH 27 33
ATOM     33   C  GU1 D   2      31.716  31.262 -17.5700  0.00  0.00     0.000 C
ATOM     34   O  GU1 D   2      30.743  31.224 -16.8450  0.00  0.00     0.000 OA
ATOM     35   O  GU1 D   2      31.812  32.101 -18.4520  0.00  0.00     0.000 O
ENDBRANCH 27 33
BRANCH 23 36
ATOM     36  O4  GU6 D   3      34.191  29.562 -14.2670  0.00  0.00     0.000 O
BRANCH 36 40
ATOM     37  C1  GU6 D   3      34.362  31.339 -10.5920  0.00  0.00     0.000 C
ATOM     38  C2  GU6 D   3      35.652  31.453 -11.3950  0.00  0.00     0.000 C
ATOM     39  C3  GU6 D   3      35.403  31.016 -12.8150  0.00  0.00     0.000 C
ATOM     40  C4  GU6 D   3      34.117  30.378 -13.1160  0.00  0.00     0.000 C
ATOM     41  C5  GU6 D   3      33.698  29.457 -11.9230  0.00  0.00     0.000 C
ATOM     42  O5  GU6 D   3      33.935  29.986 -10.6130  0.00  0.00     0.000 O
BRANCH 38 43
ATOM     43   O  GU6 D   3      36.134  32.782 -11.3760  0.00  0.00     0.000 O
ATOM     44   S  GU6 D   3      37.553  32.930 -10.8410  0.00  0.00     0.000 S
ATOM     45   O  GU6 D   3      37.500  32.936  -9.3690  0.00  0.00     0.000 OA
ATOM     46   O  GU6 D   3      38.350  31.778 -11.2980  0.00  0.00     0.000 O
ATOM     47   O  GU6 D   3      38.124  34.170 -11.3570  0.00  0.00     0.000 OA
ENDBRANCH 38 43
BRANCH 39 48
ATOM     48   O  GU6 D   3      36.271  31.413 -13.8590  0.00  0.00     0.000 O
ATOM     49   S  GU6 D   3      36.197  32.624 -14.7890  0.00  0.00     0.000 S
ATOM     50   O  GU6 D   3      36.124  33.861 -14.0030  0.00  0.00     0.000 OA
ATOM     51   O  GU6 D   3      37.457  32.545 -15.5390  0.00  0.00     0.000 OA
ATOM     52   O  GU6 D   3      34.997  32.498 -15.6470  0.00  0.00     0.000 O
ENDBRANCH 39 48
BRANCH 41 53
ATOM     53   C  GU6 D   3      33.065  28.092 -11.9560  0.00  0.00     0.000 C
ATOM     54   O  GU6 D   3      31.778  28.489 -12.3540  0.00  0.00     0.000 O
ATOM     55   S  GU6 D   3      30.640  27.463 -12.4430  0.00  0.00     0.000 S
ATOM     56   O  GU6 D   3      30.375  26.998 -11.0620  0.00  0.00     0.000 O
ATOM     57   O  GU6 D   3      29.455  28.126 -13.0050  0.00  0.00     0.000 OA
ATOM     58   O  GU6 D   3      31.117  26.352 -13.2970  0.00  0.00     0.000 OA
ENDBRANCH 41 53
BRANCH 37 59
ATOM     59  O4  Z9K D   4      33.192  32.162 -10.7820  0.00  0.00     0.000 O
BRANCH 59 63
ATOM     60  C1  Z9K D   4      33.188  36.031 -10.0890  0.00  0.00     0.000 C
ATOM     61  C2  Z9K D   4      33.476  35.471  -8.6680  0.00  0.00     0.000 C
ATOM     62  C3  Z9K D   4      33.659  33.923  -8.9860  0.00  0.00     0.000 C
ATOM     63  C4  Z9K D   4      32.627  33.207  -9.9380  0.00  0.00     0.000 C
ATOM     64  C5  Z9K D   4      31.916  34.107 -10.9600  0.00  0.00     0.000 C
ATOM     65  O5  Z9K D   4      32.918  35.117 -11.2520  0.00  0.00     0.000 O
ATOM     66   O  Z9K D   4      33.704  33.102  -7.8050  0.00  0.00     0.000 O
ATOM     67   C  Z9K D   4      34.990  32.993  -7.2160  0.00  0.00     0.000 C
BRANCH 61 68
ATOM     68   O  Z9K D   4      34.737  35.946  -8.2860  0.00  0.00     0.000 O
ATOM     69   O  Z9K D   4      33.194  35.685  -6.2610  0.00  0.00     0.000 OA
ATOM     70   S  Z9K D   4      33.773  36.624  -7.1740  0.00  0.00     0.000 S
ATOM     71   O  Z9K D   4      33.102  37.744  -7.7600  0.00  0.00     0.000 OA
ATOM     72   O  Z9K D   4      35.072  37.023  -6.7390  0.00  0.00     0.000 OA
ENDBRANCH 61 68
BRANCH 64 73
ATOM     73   C  Z9K D   4      31.346  33.270 -12.1250  0.00  0.00     0.000 C
ATOM     74   O  Z9K D   4      31.757  33.429 -13.3100  0.00  0.00     0.000 O
ATOM     75   O  Z9K D   4      30.461  32.398 -11.9410  0.00  0.00     0.000 OA
ENDBRANCH 64 73
BRANCH 60 76
ATOM     76  O4  Z9L D   5      32.212  37.010 -10.4830  0.00  0.00     0.000 O
BRANCH 76 80
ATOM     77  C1  Z9L D   5      31.797  40.458 -12.4610  0.00  0.00     0.000 C
ATOM     78  C2  Z9L D   5      30.830  39.391 -13.1680  0.00  0.00     0.000 C
ATOM     79  C3  Z9L D   5      30.652  38.104 -12.0850  0.00  0.00     0.000 C
ATOM     80  C4  Z9L D   5      32.198  37.932 -11.5430  0.00  0.00     0.000 C
ATOM     81  C5  Z9L D   5      33.268  39.029 -11.0420  0.00  0.00     0.000 C
ATOM     82  O5  Z9L D   5      33.151  40.145 -11.9370  0.00  0.00     0.000 O
ATOM     83   C  Z9L D   5      31.782  42.146 -10.7170  0.00  0.00     0.000 C
ATOM     84   C  Z9L D   5      31.782  42.146 -10.7170  0.00  0.00     0.000 C
BRANCH 78 85
ATOM     85   O  Z9L D   5      29.592  39.995 -13.3670  0.00  0.00     0.000 O
ATOM     86   O  Z9L D   5      28.875  40.514 -15.0770  0.00  0.00     0.000 OA
ATOM     87   S  Z9L D   5      30.089  39.782 -14.8800  0.00  0.00     0.000 S
ATOM     88   O  Z9L D   5      29.819  38.464 -15.4000  0.00  0.00     0.000 OA
ATOM     89   O  Z9L D   5      31.125  40.644 -15.3340  0.00  0.00     0.000 OA
ENDBRANCH 78 85
BRANCH 79 90
ATOM     90   O  Z9L D   5      30.431  36.904 -12.7560  0.00  0.00     0.000 O
ATOM     91   S  Z9L D   5      29.080  36.995 -11.9190  0.00  0.00     0.000 S
ATOM     92   O  Z9L D   5      28.198  38.129 -12.0010  0.00  0.00     0.000 OA
ATOM     93   O  Z9L D   5      29.230  36.260 -10.6880  0.00  0.00     0.000 O
ATOM     94   O  Z9L D   5      28.665  36.064 -12.9180  0.00  0.00     0.000 OA
ENDBRANCH 79 90
BRANCH 81 95
ATOM     95   C  Z9L D   5      34.803  38.482 -10.6440  0.00  0.00     0.000 C
ATOM     96   S  Z9L D   5      36.678  38.290 -11.2870  0.00  0.00     0.000 S
ATOM     97   O  Z9L D   5      35.249  38.194 -11.9420  0.00  0.00     0.000 O
ATOM     98   O  Z9L D   5      36.843  37.111 -10.4760  0.00  0.00     0.000 OA
ATOM     99   O  Z9L D   5      37.054  39.577 -10.8080  0.00  0.00     0.000 OA
ATOM    100   O  Z9L D   5      37.077  37.975 -12.6360  0.00  0.00     0.000 O
ENDBRANCH 81 95
ENDBRANCH 76 80
ENDBRANCH 60 76
ENDBRANCH 59 63
ENDBRANCH 37 59
ENDBRANCH 36 40
ENDBRANCH 23 36
ENDBRANCH 22 26
ENDBRANCH 1 22
TORSDOF 19
ENDMDL
MODEL 97
REMARK VINA RESULT:      -5.2     30.495     38.796
ROOT
ATOM      1  C1  Z9H D   1       8.421  41.465 -29.6160  0.00  0.00     0.000 C
ATOM      2  C2  Z9H D   1       9.598  42.462 -29.7400  0.00  0.00     0.000 C
ATOM      3  C3  Z9H D   1       9.327  42.945 -31.1970  0.00  0.00     0.000 C
ATOM      4  C4  Z9H D   1       9.125  41.795 -32.2680  0.00  0.00     0.000 C
ATOM      5  C5  Z9H D   1       8.175  40.554 -32.0340  0.00  0.00     0.000 C
ATOM      6  O5  Z9H D   1       8.250  40.402 -30.5940  0.00  0.00     0.000 O
ATOM      7   O  Z9H D   1      10.324  43.867 -31.6400  0.00  0.00     0.000 O
ATOM      8   C  Z9H D   1       9.966  45.256 -31.5450  0.00  0.00     0.000 C
ATOM      9   O  Z9H D   1       8.679  42.449 -33.4610  0.00  0.00     0.000 O
ATOM     10   C  Z9H D   1       9.688  42.686 -34.4480  0.00  0.00     0.000 C
ENDROOT
BRANCH 2 11
ATOM     11   O  Z9H D   1       9.174  43.518 -28.9190  0.00  0.00     0.000 O
ATOM     12   O  Z9H D   1      10.014  44.008 -27.3030  0.00  0.00     0.000 OA
ATOM     13   S  Z9H D   1      10.462  42.970 -28.1690  0.00  0.00     0.000 S
ATOM     14   O  Z9H D   1      11.618  43.319 -28.9440  0.00  0.00     0.000 OA
ATOM     15   O  Z9H D   1      10.222  41.676 -27.5710  0.00  0.00     0.000 O
ENDBRANCH 2 11
BRANCH 5 16
ATOM     16   C  Z9H D   1       8.436  39.258 -33.0600  0.00  0.00     0.000 C
ATOM     17   S  Z9H D   1       7.586  37.632 -33.8810  0.00  0.00     0.000 S
ATOM     18   O  Z9H D   1       7.128  39.148 -33.5670  0.00  0.00     0.000 O
ATOM     19   O  Z9H D   1       7.803  36.816 -32.7210  0.00  0.00     0.000 O
ATOM     20   O  Z9H D   1       8.429  37.601 -35.0250  0.00  0.00     0.000 OA
ATOM     21   O  Z9H D   1       6.228  37.566 -34.3370  0.00  0.00     0.000 OA
ENDBRANCH 5 16
BRANCH 1 22
ATOM     22  O4  GU1 D   2       7.083  42.080 -29.6500  0.00  0.00     0.000 O
BRANCH 22 26
ATOM     23  C1  GU1 D   2       3.253  42.037 -28.1340  0.00  0.00     0.000 C
ATOM     24  C2  GU1 D   2       4.356  42.001 -27.0870  0.00  0.00     0.000 C
ATOM     25  C3  GU1 D   2       5.656  42.403 -27.7210  0.00  0.00     0.000 C
ATOM     26  C4  GU1 D   2       5.942  41.562 -28.9560  0.00  0.00     0.000 C
ATOM     27  C5  GU1 D   2       4.732  41.581 -29.8950  0.00  0.00     0.000 C
ATOM     28  O5  GU1 D   2       3.560  41.154 -29.2060  0.00  0.00     0.000 O
ATOM     29   O  GU1 D   2       4.094  42.890 -26.0080  0.00  0.00     0.000 O
ATOM     30   C  GU1 D   2       3.497  42.265 -24.8800  0.00  0.00     0.000 C
ATOM     31   C  GU1 D   2       7.177  43.374 -26.1280  0.00  0.00     0.000 C
ATOM     32   O  GU1 D   2       6.706  42.192 -26.7710  0.00  0.00     0.000 O
BRANCH 27 33
ATOM     33   C  GU1 D   2       4.939  40.659 -31.0730  0.00  0.00     0.000 C
ATOM     34   O  GU1 D   2       5.169  39.487 -30.8550  0.00  0.00     0.000 OA
ATOM     35   O  GU1 D   2       4.871  41.085 -32.2150  0.00  0.00     0.000 O
ENDBRANCH 27 33
BRANCH 23 36
ATOM     36  O4  GU6 D   3       1.964  41.462 -27.8430  0.00  0.00     0.000 O
BRANCH 36 40
ATOM     37  C1  GU6 D   3      -1.261  41.187 -25.3490  0.00  0.00     0.000 C
ATOM     38  C2  GU6 D   3      -0.690  42.595 -25.4690  0.00  0.00     0.000 C
ATOM     39  C3  GU6 D   3       0.303  42.642 -26.6010  0.00  0.00     0.000 C
ATOM     40  C4  GU6 D   3       0.704  41.368 -27.2090  0.00  0.00     0.000 C
ATOM     41  C5  GU6 D   3       0.827  40.274 -26.0970  0.00  0.00     0.000 C
ATOM     42  O5  GU6 D   3      -0.195  40.287 -25.0940  0.00  0.00     0.000 O
BRANCH 38 43
ATOM     43   O  GU6 D   3      -1.723  43.534 -25.6940  0.00  0.00     0.000 O
ATOM     44   S  GU6 D   3      -1.823  44.625 -24.6360  0.00  0.00     0.000 S
ATOM     45   O  GU6 D   3      -2.568  44.092 -23.4820  0.00  0.00     0.000 OA
ATOM     46   O  GU6 D   3      -0.461  44.995 -24.2110  0.00  0.00     0.000 O
ATOM     47   O  GU6 D   3      -2.498  45.782 -25.2160  0.00  0.00     0.000 OA
ENDBRANCH 38 43
BRANCH 39 48
ATOM     48   O  GU6 D   3       0.655  43.871 -27.2080  0.00  0.00     0.000 O
ATOM     49   S  GU6 D   3       0.114  44.528 -28.4770  0.00  0.00     0.000 S
ATOM     50   O  GU6 D   3      -1.344  44.668 -28.3920  0.00  0.00     0.000 OA
ATOM     51   O  GU6 D   3       0.775  45.840 -28.4790  0.00  0.00     0.000 OA
ATOM     52   O  GU6 D   3       0.475  43.691 -29.6420  0.00  0.00     0.000 O
ENDBRANCH 39 48
BRANCH 41 53
ATOM     53   C  GU6 D   3       1.864  39.195 -25.9410  0.00  0.00     0.000 C
ATOM     54   O  GU6 D   3       1.956  39.221 -24.5400  0.00  0.00     0.000 O
ATOM     55   S  GU6 D   3       2.994  38.356 -23.8120  0.00  0.00     0.000 S
ATOM     56   O  GU6 D   3       4.327  38.882 -24.1890  0.00  0.00     0.000 O
ATOM     57   O  GU6 D   3       2.776  38.482 -22.3640  0.00  0.00     0.000 OA
ATOM     58   O  GU6 D   3       2.817  36.965 -24.2860  0.00  0.00     0.000 OA
ENDBRANCH 41 53
BRANCH 37 59
ATOM     59  O4  Z9K D   4      -2.130  40.561 -26.3160  0.00  0.00     0.000 O
BRANCH 59 63
ATOM     60  C1  Z9K D   4      -5.412  39.257 -28.0420  0.00  0.00     0.000 C
ATOM     61  C2  Z9K D   4      -5.052  40.464 -28.9510  0.00  0.00     0.000 C
ATOM     62  C3  Z9K D   4      -3.633  40.873 -28.3630  0.00  0.00     0.000 C
ATOM     63  C4  Z9K D   4      -3.445  40.960 -26.8010  0.00  0.00     0.000 C
ATOM     64  C5  Z9K D   4      -4.386  40.085 -25.9580  0.00  0.00     0.000 C
ATOM     65  O5  Z9K D   4      -4.606  38.933 -26.8140  0.00  0.00     0.000 O
ATOM     66   O  Z9K D   4      -3.150  42.133 -28.8640  0.00  0.00     0.000 O
ATOM     67   C  Z9K D   4      -2.460  42.046 -30.1000  0.00  0.00     0.000 C
BRANCH 61 68
ATOM     68   O  Z9K D   4      -4.815  39.956 -30.2350  0.00  0.00     0.000 O
ATOM     69   O  Z9K D   4      -5.725  42.345 -30.3400  0.00  0.00     0.000 OA
ATOM     70   S  Z9K D   4      -6.057  40.961 -30.4980  0.00  0.00     0.000 S
ATOM     71   O  Z9K D   4      -7.265  40.335 -30.0550  0.00  0.00     0.000 OA
ATOM     72   O  Z9K D   4      -5.743  40.509 -31.8150  0.00  0.00     0.000 OA
ENDBRANCH 61 68
BRANCH 64 73
ATOM     73   C  Z9K D   4      -3.808  39.861 -24.5450  0.00  0.00     0.000 C
ATOM     74   O  Z9K D   4      -3.262  38.765 -24.2270  0.00  0.00     0.000 O
ATOM     75   O  Z9K D   4      -3.851  40.753 -23.6630  0.00  0.00     0.000 OA
ENDBRANCH 64 73
BRANCH 60 76
ATOM     76  O4  Z9L D   5      -6.676  38.939 -27.4360  0.00  0.00     0.000 O
BRANCH 76 80
ATOM     77  C1  Z9L D   5      -9.405  36.085 -26.8210  0.00  0.00     0.000 C
ATOM     78  C2  Z9L D   5      -8.711  36.383 -25.4060  0.00  0.00     0.000 C
ATOM     79  C3  Z9L D   5      -7.914  37.867 -25.5600  0.00  0.00     0.000 C
ATOM     80  C4  Z9L D   5      -7.240  37.710 -27.0560  0.00  0.00     0.000 C
ATOM     81  C5  Z9L D   5      -7.869  37.189 -28.4460  0.00  0.00     0.000 C
ATOM     82  O5  Z9L D   5      -8.685  36.054 -28.1200  0.00  0.00     0.000 O
ATOM     83   C  Z9L D   5     -11.302  36.773 -28.1710  0.00  0.00     0.000 C
ATOM     84   C  Z9L D   5     -11.302  36.773 -28.1710  0.00  0.00     0.000 C
BRANCH 78 85
ATOM     85   O  Z9L D   5      -9.714  36.502 -24.4490  0.00  0.00     0.000 O
ATOM     86   O  Z9L D   5     -10.063  35.227 -23.0480  0.00  0.00     0.000 OA
ATOM     87   S  Z9L D   5      -8.957  35.173 -23.9550  0.00  0.00     0.000 S
ATOM     88   O  Z9L D   5      -7.795  35.435 -23.1430  0.00  0.00     0.000 OA
ATOM     89   O  Z9L D   5      -9.166  33.999 -24.7300  0.00  0.00     0.000 OA
ENDBRANCH 78 85
BRANCH 79 90
ATOM     90   O  Z9L D   5      -6.797  37.931 -24.7310  0.00  0.00     0.000 O
ATOM     91   S  Z9L D   5      -7.660  39.117 -24.1100  0.00  0.00     0.000 S
ATOM     92   O  Z9L D   5      -9.003  38.922 -23.6280  0.00  0.00     0.000 OA
ATOM     93   O  Z9L D   5      -7.262  40.364 -24.7130  0.00  0.00     0.000 O
ATOM     94   O  Z9L D   5      -6.779  38.879 -23.0120  0.00  0.00     0.000 OA
ENDBRANCH 79 90
BRANCH 81 95
ATOM     95   C  Z9L D   5      -6.837  37.079 -29.7640  0.00  0.00     0.000 C
ATOM     96   S  Z9L D   5      -6.093  35.856 -31.1480  0.00  0.00     0.000 S
ATOM     97   O  Z9L D   5      -6.496  35.725 -29.6320  0.00  0.00     0.000 O
ATOM     98   O  Z9L D   5      -4.878  36.630 -31.1890  0.00  0.00     0.000 OA
ATOM     99   O  Z9L D   5      -7.162  36.107 -32.0540  0.00  0.00     0.000 OA
ATOM    100   O  Z9L D   5      -5.744  34.471 -30.9480  0.00  0.00     0.000 O
ENDBRANCH 81 95
ENDBRANCH 76 80
ENDBRANCH 60 76
ENDBRANCH 59 63
ENDBRANCH 37 59
ENDBRANCH 36 40
ENDBRANCH 23 36
ENDBRANCH 22 26
ENDBRANCH 1 22
TORSDOF 19
ENDMDL
MODEL 98
REMARK VINA RESULT:      -5.2     41.166     46.491
ROOT
ATOM      1  C1  Z9H D   1       1.068   7.532 -47.5470  0.00  0.00     0.000 C
ATOM      2  C2  Z9H D   1       1.354   6.880 -46.1730  0.00  0.00     0.000 C
ATOM      3  C3  Z9H D   1       2.870   7.231 -46.0730  0.00  0.00     0.000 C
ATOM      4  C4  Z9H D   1       3.740   6.857 -47.3430  0.00  0.00     0.000 C
ATOM      5  C5  Z9H D   1       3.306   7.209 -48.8220  0.00  0.00     0.000 C
ATOM      6  O5  Z9H D   1       1.861   7.174 -48.7130  0.00  0.00     0.000 O
ATOM      7   O  Z9H D   1       3.459   6.688 -44.8890  0.00  0.00     0.000 O
ATOM      8   C  Z9H D   1       3.589   7.604 -43.7890  0.00  0.00     0.000 C
ATOM      9   O  Z9H D   1       5.023   7.455 -47.1260  0.00  0.00     0.000 O
ATOM     10   C  Z9H D   1       6.037   6.577 -46.6290  0.00  0.00     0.000 C
ENDROOT
BRANCH 2 11
ATOM     11   O  Z9H D   1       0.714   7.764 -45.2910  0.00  0.00     0.000 O
ATOM     12   O  Z9H D   1      -0.765   7.302 -44.2150  0.00  0.00     0.000 OA
ATOM     13   S  Z9H D   1      -0.076   6.402 -45.0790  0.00  0.00     0.000 S
ATOM     14   O  Z9H D   1       0.785   5.483 -44.3910  0.00  0.00     0.000 OA
ATOM     15   O  Z9H D   1      -0.896   6.077 -46.2240  0.00  0.00     0.000 O
ENDBRANCH 2 11
BRANCH 5 16
ATOM     16   C  Z9H D   1       4.110   6.357 -50.0180  0.00  0.00     0.000 C
ATOM     17   S  Z9H D   1       3.934   5.580 -51.8630  0.00  0.00     0.000 S
ATOM     18   O  Z9H D   1       3.476   6.943 -51.1290  0.00  0.00     0.000 O
ATOM     19   O  Z9H D   1       3.268   4.395 -51.4040  0.00  0.00     0.000 O
ATOM     20   O  Z9H D   1       5.323   5.627 -52.1620  0.00  0.00     0.000 OA
ATOM     21   O  Z9H D   1       3.232   6.205 -52.9460  0.00  0.00     0.000 OA
ENDBRANCH 5 16
BRANCH 1 22
ATOM     22  O4  GU1 D   2       1.199   8.999 -47.5750  0.00  0.00     0.000 O
BRANCH 22 26
ATOM     23  C1  GU1 D   2      -0.404  12.523 -48.9830  0.00  0.00     0.000 C
ATOM     24  C2  GU1 D   2      -1.426  11.488 -48.5380  0.00  0.00     0.000 C
ATOM     25  C3  GU1 D   2      -0.744  10.439 -47.7090  0.00  0.00     0.000 C
ATOM     26  C4  GU1 D   2       0.453   9.857 -48.4470  0.00  0.00     0.000 C
ATOM     27  C5  GU1 D   2       1.364  10.984 -48.9420  0.00  0.00     0.000 C
ATOM     28  O5  GU1 D   2       0.628  11.905 -49.7430  0.00  0.00     0.000 O
ATOM     29   O  GU1 D   2      -2.464  12.067 -47.7560  0.00  0.00     0.000 O
ATOM     30   C  GU1 D   2      -3.636  12.380 -48.4960  0.00  0.00     0.000 C
ATOM     31   C  GU1 D   2      -2.250   9.400 -46.1460  0.00  0.00     0.000 C
ATOM     32   O  GU1 D   2      -1.679   9.387 -47.4520  0.00  0.00     0.000 O
BRANCH 27 33
ATOM     33   C  GU1 D   2       2.497  10.443 -49.7810  0.00  0.00     0.000 C
ATOM     34   O  GU1 D   2       2.228   9.906 -50.8360  0.00  0.00     0.000 OA
ATOM     35   O  GU1 D   2       3.654  10.550 -49.4060  0.00  0.00     0.000 O
ENDBRANCH 27 33
BRANCH 23 36
ATOM     36  O4  GU6 D   3      -0.754  13.496 -49.9880  0.00  0.00     0.000 O
BRANCH 36 40
ATOM     37  C1  GU6 D   3      -0.481  16.839 -52.3210  0.00  0.00     0.000 C
ATOM     38  C2  GU6 D   3      -1.600  15.888 -52.7300  0.00  0.00     0.000 C
ATOM     39  C3  GU6 D   3      -1.790  14.844 -51.6620  0.00  0.00     0.000 C
ATOM     40  C4  GU6 D   3      -0.789  14.773 -50.5910  0.00  0.00     0.000 C
ATOM     41  C5  GU6 D   3       0.632  15.042 -51.1870  0.00  0.00     0.000 C
ATOM     42  O5  GU6 D   3       0.713  16.089 -52.1610  0.00  0.00     0.000 O
BRANCH 38 43
ATOM     43   O  GU6 D   3      -2.806  16.599 -52.9320  0.00  0.00     0.000 O
ATOM     44   S  GU6 D   3      -3.076  16.982 -54.3810  0.00  0.00     0.000 S
ATOM     45   O  GU6 D   3      -2.314  18.203 -54.6920  0.00  0.00     0.000 OA
ATOM     46   O  GU6 D   3      -2.618  15.883 -55.2510  0.00  0.00     0.000 O
ATOM     47   O  GU6 D   3      -4.510  17.191 -54.5530  0.00  0.00     0.000 OA
ENDBRANCH 38 43
BRANCH 39 48
ATOM     48   O  GU6 D   3      -3.001  14.119 -51.5620  0.00  0.00     0.000 O
ATOM     49   S  GU6 D   3      -3.467  12.879 -52.3250  0.00  0.00     0.000 S
ATOM     50   O  GU6 D   3      -2.484  11.799 -52.1830  0.00  0.00     0.000 OA
ATOM     51   O  GU6 D   3      -4.733  12.536 -51.6610  0.00  0.00     0.000 OA
ATOM     52   O  GU6 D   3      -3.633  13.229 -53.7530  0.00  0.00     0.000 O
ENDBRANCH 39 48
BRANCH 41 53
ATOM     53   C  GU6 D   3       1.937  14.363 -50.8680  0.00  0.00     0.000 C
ATOM     54   O  GU6 D   3       2.559  14.552 -52.1120  0.00  0.00     0.000 O
ATOM     55   S  GU6 D   3       3.934  13.932 -52.3960  0.00  0.00     0.000 S
ATOM     56   O  GU6 D   3       3.749  12.463 -52.3960  0.00  0.00     0.000 O
ATOM     57   O  GU6 D   3       4.395  14.398 -53.7120  0.00  0.00     0.000 OA
ATOM     58   O  GU6 D   3       4.840  14.355 -51.3050  0.00  0.00     0.000 OA
ENDBRANCH 41 53
BRANCH 37 59
ATOM     59  O4  Z9K D   4      -0.549  17.777 -51.2270  0.00  0.00     0.000 O
BRANCH 59 63
ATOM     60  C1  Z9K D   4       0.731  21.046 -52.9940  0.00  0.00     0.000 C
ATOM     61  C2  Z9K D   4       2.031  20.549 -52.3030  0.00  0.00     0.000 C
ATOM     62  C3  Z9K D   4       1.555  19.137 -51.7460  0.00  0.00     0.000 C
ATOM     63  C4  Z9K D   4       0.164  19.030 -51.0130  0.00  0.00     0.000 C
ATOM     64  C5  Z9K D   4      -0.889  20.078 -51.4070  0.00  0.00     0.000 C
ATOM     65  O5  Z9K D   4      -0.581  20.335 -52.8020  0.00  0.00     0.000 O
ATOM     66   O  Z9K D   4       2.497  18.536 -50.8400  0.00  0.00     0.000 O
ATOM     67   C  Z9K D   4       3.523  17.787 -51.4720  0.00  0.00     0.000 C
BRANCH 61 68
ATOM     68   O  Z9K D   4       2.959  20.279 -53.3180  0.00  0.00     0.000 O
ATOM     69   O  Z9K D   4       4.126  21.065 -51.1800  0.00  0.00     0.000 OA
ATOM     70   S  Z9K D   4       3.700  21.458 -52.4900  0.00  0.00     0.000 S
ATOM     71   O  Z9K D   4       3.108  22.713 -52.8360  0.00  0.00     0.000 OA
ATOM     72   O  Z9K D   4       4.678  21.108 -53.4700  0.00  0.00     0.000 OA
ENDBRANCH 61 68
BRANCH 64 73
ATOM     73   C  Z9K D   4      -2.308  19.597 -51.0360  0.00  0.00     0.000 C
ATOM     74   O  Z9K D   4      -3.266  19.689 -51.8570  0.00  0.00     0.000 O
ATOM     75   O  Z9K D   4      -2.563  19.092 -49.9160  0.00  0.00     0.000 OA
ENDBRANCH 64 73
BRANCH 60 76
ATOM     76  O4  Z9L D   5       0.152  22.362 -52.9700  0.00  0.00     0.000 O
BRANCH 76 80
ATOM     77  C1  Z9L D   5      -1.409  25.109 -55.4170  0.00  0.00     0.000 C
ATOM     78  C2  Z9L D   5      -2.471  24.872 -54.2380  0.00  0.00     0.000 C
ATOM     79  C3  Z9L D   5      -1.643  24.087 -52.9900  0.00  0.00     0.000 C
ATOM     80  C4  Z9L D   5      -0.749  22.996 -53.8410  0.00  0.00     0.000 C
ATOM     81  C5  Z9L D   5       0.145  23.174 -55.1710  0.00  0.00     0.000 C
ATOM     82  O5  Z9L D   5      -0.600  24.034 -56.0460  0.00  0.00     0.000 O
ATOM     83   C  Z9L D   5       0.473  26.526 -56.0000  0.00  0.00     0.000 C
ATOM     84   C  Z9L D   5       0.473  26.526 -56.0000  0.00  0.00     0.000 C
BRANCH 78 85
ATOM     85   O  Z9L D   5      -2.901  26.117 -53.7880  0.00  0.00     0.000 O
ATOM     86   O  Z9L D   5      -4.671  26.834 -54.0390  0.00  0.00     0.000 OA
ATOM     87   S  Z9L D   5      -4.261  25.508 -54.3880  0.00  0.00     0.000 S
ATOM     88   O  Z9L D   5      -4.966  24.645 -53.4720  0.00  0.00     0.000 OA
ATOM     89   O  Z9L D   5      -4.357  25.448 -55.8060  0.00  0.00     0.000 OA
ENDBRANCH 78 85
BRANCH 79 90
ATOM     90   O  Z9L D   5      -2.495  23.270 -52.2520  0.00  0.00     0.000 O
ATOM     91   S  Z9L D   5      -1.934  24.195 -51.0830  0.00  0.00     0.000 S
ATOM     92   O  Z9L D   5      -2.037  25.630 -51.1200  0.00  0.00     0.000 OA
ATOM     93   O  Z9L D   5      -0.804  23.548 -50.4630  0.00  0.00     0.000 O
ATOM     94   O  Z9L D   5      -3.108  23.703 -50.4380  0.00  0.00     0.000 OA
ENDBRANCH 79 90
BRANCH 81 95
ATOM     95   C  Z9L D   5       0.849  21.795 -55.8160  0.00  0.00     0.000 C
ATOM     96   S  Z9L D   5       0.609  20.299 -57.1080  0.00  0.00     0.000 S
ATOM     97   O  Z9L D   5      -0.330  21.105 -56.1350  0.00  0.00     0.000 O
ATOM     98   O  Z9L D   5       1.427  19.446 -56.2840  0.00  0.00     0.000 OA
ATOM     99   O  Z9L D   5       1.166  21.042 -58.1880  0.00  0.00     0.000 OA
ATOM    100   O  Z9L D   5      -0.630  19.614 -57.3830  0.00  0.00     0.000 O
ENDBRANCH 81 95
ENDBRANCH 76 80
ENDBRANCH 60 76
ENDBRANCH 59 63
ENDBRANCH 37 59
ENDBRANCH 36 40
ENDBRANCH 23 36
ENDBRANCH 22 26
ENDBRANCH 1 22
TORSDOF 19
ENDMDL
MODEL 99
REMARK VINA RESULT:      -5.1     21.529     28.801
ROOT
ATOM      1  C1  Z9H D   1      28.449  43.536  -3.6000  0.00  0.00     0.000 C
ATOM      2  C2  Z9H D   1      27.712  42.603  -2.6090  0.00  0.00     0.000 C
ATOM      3  C3  Z9H D   1      26.299  43.257  -2.6970  0.00  0.00     0.000 C
ATOM      4  C4  Z9H D   1      26.265  44.829  -2.5040  0.00  0.00     0.000 C
ATOM      5  C5  Z9H D   1      27.251  45.813  -3.2520  0.00  0.00     0.000 C
ATOM      6  O5  Z9H D   1      28.425  44.978  -3.4090  0.00  0.00     0.000 O
ATOM      7   O  Z9H D   1      25.372  42.627  -1.8110  0.00  0.00     0.000 O
ATOM      8   C  Z9H D   1      24.510  41.648  -2.4140  0.00  0.00     0.000 C
ATOM      9   O  Z9H D   1      24.932  45.233  -2.8370  0.00  0.00     0.000 O
ATOM     10   C  Z9H D   1      24.057  45.447  -1.7250  0.00  0.00     0.000 C
ENDROOT
BRANCH 2 11
ATOM     11   O  Z9H D   1      27.611  41.414  -3.3480  0.00  0.00     0.000 O
ATOM     12   O  Z9H D   1      28.505  39.813  -2.9060  0.00  0.00     0.000 OA
ATOM     13   S  Z9H D   1      28.561  41.012  -2.1390  0.00  0.00     0.000 S
ATOM     14   O  Z9H D   1      27.772  40.971  -0.9410  0.00  0.00     0.000 OA
ATOM     15   O  Z9H D   1      29.863  41.625  -2.2570  0.00  0.00     0.000 O
ENDBRANCH 2 11
BRANCH 5 16
ATOM     16   C  Z9H D   1      27.355  47.348  -2.5940  0.00  0.00     0.000 C
ATOM     17   S  Z9H D   1      28.629  48.801  -2.0410  0.00  0.00     0.000 S
ATOM     18   O  Z9H D   1      28.508  47.773  -3.2800  0.00  0.00     0.000 O
ATOM     19   O  Z9H D   1      28.928  48.189  -0.7780  0.00  0.00     0.000 O
ATOM     20   O  Z9H D   1      27.696  49.863  -2.1910  0.00  0.00     0.000 OA
ATOM     21   O  Z9H D   1      29.818  49.158  -2.7580  0.00  0.00     0.000 OA
ENDBRANCH 5 16
BRANCH 1 22
ATOM     22  O4  GU1 D   2      27.989  43.443  -4.9960  0.00  0.00     0.000 O
BRANCH 22 26
ATOM     23  C1  GU1 D   2      29.179  43.520  -8.9390  0.00  0.00     0.000 C
ATOM     24  C2  GU1 D   2      30.188  42.910  -7.9790  0.00  0.00     0.000 C
ATOM     25  C3  GU1 D   2      29.507  42.590  -6.6790  0.00  0.00     0.000 C
ATOM     26  C4  GU1 D   2      28.783  43.811  -6.1300  0.00  0.00     0.000 C
ATOM     27  C5  GU1 D   2      27.873  44.409  -7.2070  0.00  0.00     0.000 C
ATOM     28  O5  GU1 D   2      28.621  44.705  -8.3840  0.00  0.00     0.000 O
ATOM     29   O  GU1 D   2      30.752  41.709  -8.4920  0.00  0.00     0.000 O
ATOM     30   C  GU1 D   2      32.008  41.890  -9.1290  0.00  0.00     0.000 C
ATOM     31   C  GU1 D   2      30.583  40.780  -5.5150  0.00  0.00     0.000 C
ATOM     32   O  GU1 D   2      30.503  42.186  -5.7350  0.00  0.00     0.000 O
BRANCH 27 33
ATOM     33   C  GU1 D   2      27.233  45.692  -6.7320  0.00  0.00     0.000 C
ATOM     34   O  GU1 D   2      26.028  45.716  -6.5830  0.00  0.00     0.000 OA
ATOM     35   O  GU1 D   2      27.915  46.677  -6.4990  0.00  0.00     0.000 O
ENDBRANCH 27 33
BRANCH 23 36
ATOM     36  O4  GU6 D   3      29.629  44.137 -10.1620  0.00  0.00     0.000 O
BRANCH 36 40
ATOM     37  C1  GU6 D   3      30.854  46.876 -12.9350  0.00  0.00     0.000 C
ATOM     38  C2  GU6 D   3      30.418  45.543 -13.5320  0.00  0.00     0.000 C
ATOM     39  C3  GU6 D   3      29.738  44.715 -12.4740  0.00  0.00     0.000 C
ATOM     40  C4  GU6 D   3      29.806  45.190 -11.0880  0.00  0.00     0.000 C
ATOM     41  C5  GU6 D   3      31.217  45.810 -10.8170  0.00  0.00     0.000 C
ATOM     42  O5  GU6 D   3      31.754  46.621 -11.8680  0.00  0.00     0.000 O
BRANCH 38 43
ATOM     43   O  GU6 D   3      29.541  45.749 -14.6230  0.00  0.00     0.000 O
ATOM     44   S  GU6 D   3      30.219  45.731 -15.9870  0.00  0.00     0.000 S
ATOM     45   O  GU6 D   3      30.819  47.054 -16.2290  0.00  0.00     0.000 OA
ATOM     46   O  GU6 D   3      31.279  44.707 -15.9730  0.00  0.00     0.000 O
ATOM     47   O  GU6 D   3      29.222  45.405 -17.0020  0.00  0.00     0.000 OA
ENDBRANCH 38 43
BRANCH 39 48
ATOM     48   O  GU6 D   3      28.872  43.653 -12.8280  0.00  0.00     0.000 O
ATOM     49   S  GU6 D   3      29.197  42.209 -13.2090  0.00  0.00     0.000 S
ATOM     50   O  GU6 D   3      29.996  41.575 -12.1550  0.00  0.00     0.000 OA
ATOM     51   O  GU6 D   3      27.870  41.587 -13.3160  0.00  0.00     0.000 OA
ATOM     52   O  GU6 D   3      29.947  42.206 -14.4850  0.00  0.00     0.000 O
ENDBRANCH 39 48
BRANCH 41 53
ATOM     53   C  GU6 D   3      32.087  45.688  -9.5950  0.00  0.00     0.000 C
ATOM     54   O  GU6 D   3      31.377  46.572  -8.7670  0.00  0.00     0.000 O
ATOM     55   S  GU6 D   3      31.908  46.927  -7.3710  0.00  0.00     0.000 S
ATOM     56   O  GU6 D   3      33.166  47.683  -7.5730  0.00  0.00     0.000 O
ATOM     57   O  GU6 D   3      30.907  47.757  -6.6860  0.00  0.00     0.000 OA
ATOM     58   O  GU6 D   3      32.160  45.653  -6.6610  0.00  0.00     0.000 OA
ENDBRANCH 41 53
BRANCH 37 59
ATOM     59  O4  Z9K D   4      29.959  47.921 -12.5010  0.00  0.00     0.000 O
BRANCH 59 63
ATOM     60  C1  Z9K D   4      28.675  51.122 -10.6160  0.00  0.00     0.000 C
ATOM     61  C2  Z9K D   4      30.092  50.958 -10.0000  0.00  0.00     0.000 C
ATOM     62  C3  Z9K D   4      30.675  49.779 -10.8940  0.00  0.00     0.000 C
ATOM     63  C4  Z9K D   4      29.774  48.519 -11.1850  0.00  0.00     0.000 C
ATOM     64  C5  Z9K D   4      28.256  48.749 -11.1390  0.00  0.00     0.000 C
ATOM     65  O5  Z9K D   4      28.125  50.122 -11.5950  0.00  0.00     0.000 O
ATOM     66   O  Z9K D   4      31.911  49.241 -10.3910  0.00  0.00     0.000 O
ATOM     67   C  Z9K D   4      33.069  49.945 -10.8080  0.00  0.00     0.000 C
BRANCH 61 68
ATOM     68   O  Z9K D   4      30.823  52.105 -10.3370  0.00  0.00     0.000 O
ATOM     69   O  Z9K D   4      31.544  51.183  -8.0610  0.00  0.00     0.000 OA
ATOM     70   S  Z9K D   4      30.779  52.198  -8.7200  0.00  0.00     0.000 S
ATOM     71   O  Z9K D   4      29.490  52.669  -8.3150  0.00  0.00     0.000 OA
ATOM     72   O  Z9K D   4      31.603  53.310  -9.0700  0.00  0.00     0.000 OA
ENDBRANCH 61 68
BRANCH 64 73
ATOM     73   C  Z9K D   4      27.508  47.638 -11.9060  0.00  0.00     0.000 C
ATOM     74   O  Z9K D   4      27.259  47.748 -13.1420  0.00  0.00     0.000 O
ATOM     75   O  Z9K D   4      27.126  46.585 -11.3390  0.00  0.00     0.000 OA
ENDBRANCH 64 73
BRANCH 60 76
ATOM     76  O4  Z9L D   5      27.423  51.320  -9.9390  0.00  0.00     0.000 O
BRANCH 76 80
ATOM     77  C1  Z9L D   5      23.972  53.336  -9.9620  0.00  0.00     0.000 C
ATOM     78  C2  Z9L D   5      23.621  51.800 -10.2600  0.00  0.00     0.000 C
ATOM     79  C3  Z9L D   5      24.974  50.894  -9.8020  0.00  0.00     0.000 C
ATOM     80  C4  Z9L D   5      26.195  51.832 -10.3890  0.00  0.00     0.000 C
ATOM     81  C5  Z9L D   5      26.442  53.422 -10.2920  0.00  0.00     0.000 C
ATOM     82  O5  Z9L D   5      25.164  54.043 -10.4950  0.00  0.00     0.000 O
ATOM     83   C  Z9L D   5      24.181  54.896  -8.1140  0.00  0.00     0.000 C
ATOM     84   C  Z9L D   5      24.181  54.896  -8.1140  0.00  0.00     0.000 C
BRANCH 78 85
ATOM     85   O  Z9L D   5      22.540  51.441  -9.4600  0.00  0.00     0.000 O
ATOM     86   O  Z9L D   5      20.730  51.214 -10.0820  0.00  0.00     0.000 OA
ATOM     87   S  Z9L D   5      21.865  51.459 -10.9190  0.00  0.00     0.000 S
ATOM     88   O  Z9L D   5      22.053  50.237 -11.6620  0.00  0.00     0.000 OA
ATOM     89   O  Z9L D   5      21.636  52.739 -11.4950  0.00  0.00     0.000 OA
ENDBRANCH 78 85
BRANCH 79 90
ATOM     90   O  Z9L D   5      25.090  49.735 -10.5630  0.00  0.00     0.000 O
ATOM     91   S  Z9L D   5      24.967  49.090  -9.1120  0.00  0.00     0.000 S
ATOM     92   O  Z9L D   5      23.856  49.364  -8.2390  0.00  0.00     0.000 OA
ATOM     93   O  Z9L D   5      26.287  48.853  -8.5820  0.00  0.00     0.000 O
ATOM     94   O  Z9L D   5      24.617  47.950  -9.8970  0.00  0.00     0.000 OA
ENDBRANCH 79 90
BRANCH 81 95
ATOM     95   C  Z9L D   5      27.771  54.045 -11.1050  0.00  0.00     0.000 C
ATOM     96   S  Z9L D   5      28.387  54.916 -12.7870  0.00  0.00     0.000 S
ATOM     97   O  Z9L D   5      27.324  53.816 -12.4140  0.00  0.00     0.000 O
ATOM     98   O  Z9L D   5      29.684  54.307 -12.6350  0.00  0.00     0.000 OA
ATOM     99   O  Z9L D   5      28.122  56.226 -12.2950  0.00  0.00     0.000 OA
ATOM    100   O  Z9L D   5      27.899  54.626 -14.1120  0.00  0.00     0.000 O
ENDBRANCH 81 95
ENDBRANCH 76 80
ENDBRANCH 60 76
ENDBRANCH 59 63
ENDBRANCH 37 59
ENDBRANCH 36 40
ENDBRANCH 23 36
ENDBRANCH 22 26
ENDBRANCH 1 22
TORSDOF 19
ENDMDL
MODEL 100
REMARK VINA RESULT:      -5.1     30.575     38.661
ROOT
ATOM      1  C1  Z9H D   1      32.241   3.757 -58.4680  0.00  0.00     0.000 C
ATOM      2  C2  Z9H D   1      33.015   4.516 -59.5720  0.00  0.00     0.000 C
ATOM      3  C3  Z9H D   1      33.159   5.886 -58.8400  0.00  0.00     0.000 C
ATOM      4  C4  Z9H D   1      31.818   6.478 -58.2380  0.00  0.00     0.000 C
ATOM      5  C5  Z9H D   1      30.807   5.624 -57.3750  0.00  0.00     0.000 C
ATOM      6  O5  Z9H D   1      31.003   4.299 -57.9300  0.00  0.00     0.000 O
ATOM      7   O  Z9H D   1      33.806   6.857 -59.6640  0.00  0.00     0.000 O
ATOM      8   C  Z9H D   1      35.210   7.038 -59.4170  0.00  0.00     0.000 C
ATOM      9   O  Z9H D   1      32.213   7.600 -57.4400  0.00  0.00     0.000 O
ATOM     10   C  Z9H D   1      32.068   8.881 -58.0610  0.00  0.00     0.000 C
ENDROOT
BRANCH 2 11
ATOM     11   O  Z9H D   1      34.286   3.926 -59.4970  0.00  0.00     0.000 O
ATOM     12   O  Z9H D   1      34.998   2.772 -60.8090  0.00  0.00     0.000 OA
ATOM     13   S  Z9H D   1      33.730   3.416 -60.8950  0.00  0.00     0.000 S
ATOM     14   O  Z9H D   1      33.705   4.527 -61.8030  0.00  0.00     0.000 OA
ATOM     15   O  Z9H D   1      32.665   2.454 -60.7280  0.00  0.00     0.000 O
ENDBRANCH 2 11
BRANCH 5 16
ATOM     16   C  Z9H D   1      29.277   6.284 -57.2170  0.00  0.00     0.000 C
ATOM     17   S  Z9H D   1      27.388   6.200 -57.8990  0.00  0.00     0.000 S
ATOM     18   O  Z9H D   1      28.537   5.128 -57.5290  0.00  0.00     0.000 O
ATOM     19   O  Z9H D   1      27.667   7.009 -59.0510  0.00  0.00     0.000 O
ATOM     20   O  Z9H D   1      26.794   6.711 -56.7140  0.00  0.00     0.000 OA
ATOM     21   O  Z9H D   1      26.700   4.991 -58.2470  0.00  0.00     0.000 OA
ENDBRANCH 5 16
BRANCH 1 22
ATOM     22  O4  GU1 D   2      32.998   3.532 -57.2240  0.00  0.00     0.000 O
BRANCH 22 26
ATOM     23  C1  GU1 D   2      33.598   0.974 -54.0510  0.00  0.00     0.000 C
ATOM     24  C2  GU1 D   2      33.317   0.290 -55.3800  0.00  0.00     0.000 C
ATOM     25  C3  GU1 D   2      33.498   1.277 -56.4970  0.00  0.00     0.000 C
ATOM     26  C4  GU1 D   2      32.671   2.531 -56.2540  0.00  0.00     0.000 C
ATOM     27  C5  GU1 D   2      32.951   3.081 -54.8520  0.00  0.00     0.000 C
ATOM     28  O5  GU1 D   2      32.718   2.077 -53.8670  0.00  0.00     0.000 O
ATOM     29   O  GU1 D   2      34.194  -0.807 -55.6100  0.00  0.00     0.000 O
ATOM     30   C  GU1 D   2      33.643  -2.067 -55.2540  0.00  0.00     0.000 C
ATOM     31   C  GU1 D   2      34.106   0.204 -58.5640  0.00  0.00     0.000 C
ATOM     32   O  GU1 D   2      33.059   0.668 -57.7150  0.00  0.00     0.000 O
BRANCH 27 33
ATOM     33   C  GU1 D   2      32.056   4.255 -54.5360  0.00  0.00     0.000 C
ATOM     34   O  GU1 D   2      30.853   4.095 -54.5880  0.00  0.00     0.000 OA
ATOM     35   O  GU1 D   2      32.534   5.337 -54.2330  0.00  0.00     0.000 O
ENDBRANCH 27 33
BRANCH 23 36
ATOM     36  O4  GU6 D   3      33.258   0.316 -52.8150  0.00  0.00     0.000 O
BRANCH 36 40
ATOM     37  C1  GU6 D   3      33.522  -1.027 -48.9650  0.00  0.00     0.000 C
ATOM     38  C2  GU6 D   3      34.866  -0.674 -49.5910  0.00  0.00     0.000 C
ATOM     39  C3  GU6 D   3      34.642   0.057 -50.8890  0.00  0.00     0.000 C
ATOM     40  C4  GU6 D   3      33.275   0.103 -51.4180  0.00  0.00     0.000 C
ATOM     41  C5  GU6 D   3      32.565  -1.266 -51.1520  0.00  0.00     0.000 C
ATOM     42  O5  GU6 D   3      32.806  -1.855 -49.8680  0.00  0.00     0.000 O
BRANCH 38 43
ATOM     43   O  GU6 D   3      35.629   0.128 -48.7100  0.00  0.00     0.000 O
ATOM     44   S  GU6 D   3      36.995  -0.449 -48.3600  0.00  0.00     0.000 S
ATOM     45   O  GU6 D   3      36.822  -1.446 -47.2900  0.00  0.00     0.000 OA
ATOM     46   O  GU6 D   3      37.550  -1.106 -49.5570  0.00  0.00     0.000 O
ATOM     47   O  GU6 D   3      37.870   0.640 -47.9350  0.00  0.00     0.000 OA
ENDBRANCH 38 43
BRANCH 39 48
ATOM     48   O  GU6 D   3      35.658   0.864 -51.4530  0.00  0.00     0.000 O
ATOM     49   S  GU6 D   3      35.941   2.354 -51.2710  0.00  0.00     0.000 S
ATOM     50   O  GU6 D   3      36.094   2.670 -49.8460  0.00  0.00     0.000 OA
ATOM     51   O  GU6 D   3      37.205   2.544 -51.9960  0.00  0.00     0.000 OA
ATOM     52   O  GU6 D   3      34.818   3.129 -51.8440  0.00  0.00     0.000 O
ENDBRANCH 39 48
BRANCH 41 53
ATOM     53   C  GU6 D   3      31.648  -2.049 -52.0520  0.00  0.00     0.000 C
ATOM     54   O  GU6 D   3      30.678  -1.053 -52.2490  0.00  0.00     0.000 O
ATOM     55   S  GU6 D   3      29.397  -1.358 -53.0360  0.00  0.00     0.000 S
ATOM     56   O  GU6 D   3      28.629  -2.342 -52.2390  0.00  0.00     0.000 O
ATOM     57   O  GU6 D   3      28.636  -0.111 -53.1950  0.00  0.00     0.000 OA
ATOM     58   O  GU6 D   3      29.808  -1.933 -54.3370  0.00  0.00     0.000 OA
ENDBRANCH 41 53
BRANCH 37 59
ATOM     59  O4  Z9K D   4      32.585  -0.073 -48.4220  0.00  0.00     0.000 O
BRANCH 59 63
ATOM     60  C1  Z9K D   4      31.039   2.310 -45.7050  0.00  0.00     0.000 C
ATOM     61  C2  Z9K D   4      32.000   1.449 -44.8390  0.00  0.00     0.000 C
ATOM     62  C3  Z9K D   4      32.755   0.616 -45.9640  0.00  0.00     0.000 C
ATOM     63  C4  Z9K D   4      31.917  -0.039 -47.1270  0.00  0.00     0.000 C
ATOM     64  C5  Z9K D   4      30.582   0.642 -47.4630  0.00  0.00     0.000 C
ATOM     65  O5  Z9K D   4      30.851   2.039 -47.1730  0.00  0.00     0.000 O
ATOM     66   O  Z9K D   4      33.557  -0.456 -45.4360  0.00  0.00     0.000 O
ATOM     67   C  Z9K D   4      34.862  -0.071 -45.0380  0.00  0.00     0.000 C
BRANCH 61 68
ATOM     68   O  Z9K D   4      32.950   2.320 -44.2900  0.00  0.00     0.000 O
ATOM     69   O  Z9K D   4      32.444   0.380 -42.7000  0.00  0.00     0.000 OA
ATOM     70   S  Z9K D   4      32.200   1.766 -42.9660  0.00  0.00     0.000 S
ATOM     71   O  Z9K D   4      30.942   2.434 -42.8290  0.00  0.00     0.000 OA
ATOM     72   O  Z9K D   4      33.233   2.581 -42.4140  0.00  0.00     0.000 OA
ENDBRANCH 61 68
BRANCH 64 73
ATOM     73   C  Z9K D   4      30.111   0.257 -48.8810  0.00  0.00     0.000 C
ATOM     74   O  Z9K D   4      29.673  -0.903 -49.1340  0.00  0.00     0.000 O
ATOM     75   O  Z9K D   4      30.137   1.076 -49.8320  0.00  0.00     0.000 OA
ENDBRANCH 64 73
BRANCH 60 76
ATOM     76  O4  Z9L D   5      29.655   2.618 -45.4680  0.00  0.00     0.000 O
BRANCH 76 80
ATOM     77  C1  Z9L D   5      26.923   5.534 -45.5290  0.00  0.00     0.000 C
ATOM     78  C2  Z9L D   5      26.490   4.461 -46.6400  0.00  0.00     0.000 C
ATOM     79  C3  Z9L D   5      27.350   3.043 -46.3070  0.00  0.00     0.000 C
ATOM     80  C4  Z9L D   5      28.839   3.653 -45.9510  0.00  0.00     0.000 C
ATOM     81  C5  Z9L D   5      29.274   4.887 -45.0090  0.00  0.00     0.000 C
ATOM     82  O5  Z9L D   5      28.325   5.936 -45.2520  0.00  0.00     0.000 O
ATOM     83   C  Z9L D   5      26.569   6.068 -43.1870  0.00  0.00     0.000 C
ATOM     84   C  Z9L D   5      26.569   6.068 -43.1870  0.00  0.00     0.000 C
BRANCH 78 85
ATOM     85   O  Z9L D   5      25.128   4.213 -46.4930  0.00  0.00     0.000 O
ATOM     86   O  Z9L D   5      23.757   4.811 -47.7070  0.00  0.00     0.000 OA
ATOM     87   S  Z9L D   5      25.165   4.954 -47.9180  0.00  0.00     0.000 S
ATOM     88   O  Z9L D   5      25.470   4.078 -49.0220  0.00  0.00     0.000 OA
ATOM     89   O  Z9L D   5      25.406   6.356 -47.8970  0.00  0.00     0.000 OA
ENDBRANCH 78 85
BRANCH 79 90
ATOM     90   O  Z9L D   5      27.592   2.313 -47.4670  0.00  0.00     0.000 O
ATOM     91   S  Z9L D   5      26.782   1.226 -46.6320  0.00  0.00     0.000 S
ATOM     92   O  Z9L D   5      25.465   1.481 -46.1090  0.00  0.00     0.000 OA
ATOM     93   O  Z9L D   5      27.709   0.378 -45.9250  0.00  0.00     0.000 O
ATOM     94   O  Z9L D   5      26.618   0.675 -47.9380  0.00  0.00     0.000 OA
ENDBRANCH 79 90
BRANCH 81 95
ATOM     95   C  Z9L D   5      30.904   5.280 -44.9610  0.00  0.00     0.000 C
ATOM     96   S  Z9L D   5      32.297   6.531 -45.6420  0.00  0.00     0.000 S
ATOM     97   O  Z9L D   5      31.005   5.854 -46.2360  0.00  0.00     0.000 O
ATOM     98   O  Z9L D   5      33.292   5.495 -45.5290  0.00  0.00     0.000 OA
ATOM     99   O  Z9L D   5      32.079   7.466 -44.5910  0.00  0.00     0.000 OA
ATOM    100   O  Z9L D   5      32.357   7.077 -46.9750  0.00  0.00     0.000 O
ENDBRANCH 81 95
ENDBRANCH 76 80
ENDBRANCH 60 76
ENDBRANCH 59 63
ENDBRANCH 37 59
ENDBRANCH 36 40
ENDBRANCH 23 36
ENDBRANCH 22 26
ENDBRANCH 1 22
TORSDOF 19
ENDMDL
