ROOT
ATOM      1  C1  SGN B   1      25.470  15.274  13.720  0.00  0.00     0.000 C
ATOM      2  C2  SGN B   1      24.180  16.097  13.570  0.00  0.00     0.000 C
ATOM      3  C3  SGN B   1      23.930  16.451  12.100  0.00  0.00     0.000 C
ATOM      4  C4  SGN B   1      25.140  17.176  11.520  0.00  0.00     0.000 C
ATOM      5  C5  SGN B   1      26.400  16.371  11.830  0.00  0.00     0.000 C
ATOM      6  O5  SGN B   1      26.490  16.145  13.250  0.00  0.00     0.000 O
ATOM      7   O  SGN B   1      22.760  17.250  11.970  0.00  0.00     0.000 O
ATOM      9  HD  SGN B   1      23.260  17.750  12.470  0.00  0.00     0.000 HD
ATOM      9   O  SGN B   1      24.980  17.313  10.120  0.00  0.00     0.000 O
ATOM     11  HD  SGN B   1      25.480  17.813  10.620  0.00  0.00     0.000 HD
ENDROOT
BRANCH 2 13
ATOM     11   N  SGN B   1      22.990  15.429  14.130  0.00  0.00     0.000 N
ATOM     13  HD  SGN B   1      23.490  15.929  14.630  0.00  0.00     0.000 HD
ATOM     13   S  SGN B   1      22.890  15.009  15.680  0.00  0.00     0.000 S
ATOM     14   O  SGN B   1      24.050  15.419  16.370  0.00  0.00     0.000 OA
ATOM     15   O  SGN B   1      21.610  15.397  16.170  0.00  0.00     0.000 OA
ATOM     16   O  SGN B   1      22.860  13.461  15.490  0.00  0.00     0.000 OA
ENDBRANCH 2 13
BRANCH 5 17
ATOM     17   C  SGN B   1      27.680  17.044  11.400  0.00  0.00     0.000 C
ATOM     18   O  SGN B   1      27.500  18.470  11.290  0.00  0.00     0.000 O
ATOM     19   S  SGN B   1      28.110  19.155   9.980  0.00  0.00     0.000 S
ATOM     20   O  SGN B   1      28.010  20.579  10.220  0.00  0.00     0.000 OA
ATOM     21   O  SGN B   1      29.470  18.671   9.930  0.00  0.00     0.000 OA
ATOM     22   O  SGN B   1      27.280  18.691   8.890  0.00  0.00     0.000 OA
ENDBRANCH 5 17
BRANCH 1 23
ATOM     23  O4  IDS B   2      25.900  13.980  13.720  0.00  0.00     0.000 O
BRANCH 23 27
ATOM     24  C1  IDS B   2      27.750  10.308  14.290  0.00  0.00     0.000 C
ATOM     25  C2  IDS B   2      26.890  10.812  15.470  0.00  0.00     0.000 C
ATOM     26  C3  IDS B   2      26.030  12.001  15.050  0.00  0.00     0.000 C
ATOM     27  C4  IDS B   2      26.830  13.144  14.440  0.00  0.00     0.000 C
ATOM     28  C5  IDS B   2      27.980  12.582  13.580  0.00  0.00     0.000 C
ATOM     29  O5  IDS B   2      27.720  11.239  13.200  0.00  0.00     0.000 O
ATOM     30   O  IDS B   2      25.350  12.513  16.190  0.00  0.00     0.000 O
ATOM     32  HD  IDS B   2      25.850  13.013  16.690  0.00  0.00     0.000 HD
BRANCH 25 32
ATOM     32   O  IDS B   2      25.980   9.762  15.990  0.00  0.00     0.000 O
ATOM     33   S  IDS B   2      24.580  10.135  16.780  0.00  0.00     0.000 S
ATOM     34   O  IDS B   2      24.080   8.885  17.330  0.00  0.00     0.000 OA
ATOM     35   O  IDS B   2      24.860  11.104  17.830  0.00  0.00     0.000 OA
ATOM     36   O  IDS B   2      23.690  10.659  15.770  0.00  0.00     0.000 OA
ENDBRANCH 25 32
BRANCH 28 37
ATOM     37   C  IDS B   2      28.390  13.372  12.320  0.00  0.00     0.000 C
ATOM     38   O  IDS B   2      29.460  13.921  12.440  0.00  0.00     0.000 OA
ATOM     39   O  IDS B   2      27.770  13.430  11.230  0.00  0.00     0.000 OA
ENDBRANCH 28 37
BRANCH 24 40
ATOM     40  O4  SUS B   3      28.630   9.303  14.480  0.00  0.00     0.000 O
BRANCH 40 44
ATOM     41  C1  SUS B   3      30.080   6.438  11.790  0.00  0.00     0.000 C
ATOM     42  C2  SUS B   3      30.710   7.844  11.730  0.00  0.00     0.000 C
ATOM     43  C3  SUS B   3      30.430   8.577  13.040  0.00  0.00     0.000 C
ATOM     44  C4  SUS B   3      28.930   8.582  13.290  0.00  0.00     0.000 C
ATOM     45  C5  SUS B   3      28.450   7.151  13.420  0.00  0.00     0.000 C
ATOM     46  O5  SUS B   3      28.700   6.477  12.170  0.00  0.00     0.000 O
BRANCH 42 49
ATOM     47   N  SUS B   3      32.150   7.854  11.420  0.00  0.00     0.000 N
ATOM     49  HD  SUS B   3      32.650   8.354  11.920  0.00  0.00     0.000 HD
ATOM     49   S  SUS B   3      32.450   8.222   9.890  0.00  0.00     0.000 S
ATOM     50   O  SUS B   3      31.890   9.478   9.580  0.00  0.00     0.000 OA
ATOM     51   O  SUS B   3      33.990   8.330  10.030  0.00  0.00     0.000 OA
ATOM     52   O  SUS B   3      32.100   7.131   9.070  0.00  0.00     0.000 OA
ENDBRANCH 42 49
BRANCH 43 53
ATOM     53   O  SUS B   3      30.920   9.962  12.900  0.00  0.00     0.000 O
ATOM     54   S  SUS B   3      32.000  10.492  14.020  0.00  0.00     0.000 S
ATOM     55   O  SUS B   3      33.260   9.806  13.770  0.00  0.00     0.000 OA
ATOM     56   O  SUS B   3      32.060  11.926  13.800  0.00  0.00     0.000 OA
ATOM     57   O  SUS B   3      31.450  10.131  15.330  0.00  0.00     0.000 OA
ENDBRANCH 43 53
BRANCH 45 58
ATOM     58   C  SUS B   3      26.980   7.076  13.770  0.00  0.00     0.000 C
ATOM     59   S  SUS B   3      24.650   7.722  12.910  0.00  0.00     0.000 S
ATOM     60   O  SUS B   3      26.200   7.527  12.650  0.00  0.00     0.000 O
ATOM     61   O  SUS B   3      24.540   8.982  13.620  0.00  0.00     0.000 OA
ATOM     62   O  SUS B   3      24.160   7.800  11.560  0.00  0.00     0.000 OA
ATOM     63   O  SUS B   3      24.240   6.575  13.640  0.00  0.00     0.000 OA
ENDBRANCH 45 58
BRANCH 41 64
ATOM     64  O4  IDS B   4      30.830   5.525  12.490  0.00  0.00     0.000 O
BRANCH 64 68
ATOM     65  C1  IDS B   4      33.290   2.840  12.610  0.00  0.00     0.000 C
ATOM     66  C2  IDS B   4      33.310   3.855  11.460  0.00  0.00     0.000 C
ATOM     67  C3  IDS B   4      31.950   4.128  10.840  0.00  0.00     0.000 C
ATOM     68  C4  IDS B   4      30.840   4.220  11.870  0.00  0.00     0.000 C
ATOM     69  C5  IDS B   4      31.020   3.070  12.870  0.00  0.00     0.000 C
ATOM     70  O5  IDS B   4      32.280   3.213  13.530  0.00  0.00     0.000 O
ATOM     71   O  IDS B   4      31.680   3.073   9.940  0.00  0.00     0.000 O
ATOM     73  HD  IDS B   4      32.180   3.573  10.440  0.00  0.00     0.000 HD
BRANCH 66 73
ATOM     73   O  IDS B   4      33.770   5.150  11.980  0.00  0.00     0.000 O
ATOM     74   S  IDS B   4      35.320   5.552  11.750  0.00  0.00     0.000 S
ATOM     75   O  IDS B   4      36.110   4.487  12.330  0.00  0.00     0.000 OA
ATOM     76   O  IDS B   4      35.410   6.803  12.460  0.00  0.00     0.000 OA
ATOM     77   O  IDS B   4      35.480   5.668  10.320  0.00  0.00     0.000 OA
ENDBRANCH 66 73
BRANCH 69 78
ATOM     78   C  IDS B   4      29.860   2.892  13.840  0.00  0.00     0.000 C
ATOM     79   O  IDS B   4      28.720   3.141  13.450  0.00  0.00     0.000 OA
ATOM     80   O  IDS B   4      30.090   2.400  14.960  0.00  0.00     0.000 OA
ENDBRANCH 69 78
BRANCH 65 81
ATOM     81  O4  SGN B   5      33.220   1.579  12.100  0.00  0.00     0.000 O
BRANCH 81 85
ATOM     82  C1  SGN B   5      37.020  -0.138  12.600  0.00  0.00     0.000 C
ATOM     83  C2  SGN B   5      36.610   0.245  11.170  0.00  0.00     0.000 C
ATOM     84  C3  SGN B   5      35.450   1.249  11.220  0.00  0.00     0.000 C
ATOM     85  C4  SGN B   5      34.310   0.657  12.030  0.00  0.00     0.000 C
ATOM     86  C5  SGN B   5      34.830   0.341  13.430  0.00  0.00     0.000 C
ATOM     87  O5  SGN B   5      35.900  -0.617  13.320  0.00  0.00     0.000 O
ATOM     88   O  SGN B   5      35.030   1.562   9.910  0.00  0.00     0.000 O
ATOM     90  HD  SGN B   5      35.530   2.062  10.410  0.00  0.00     0.000 HD
BRANCH 83 92
ATOM     90   N  SGN B   5      37.780   0.742  10.420  0.00  0.00     0.000 N
ATOM     92  HD  SGN B   5      38.280   1.242  10.920  0.00  0.00     0.000 HD
ATOM     92   S  SGN B   5      38.570  -0.290   9.490  0.00  0.00     0.000 S
ATOM     93   O  SGN B   5      39.630   0.486   8.920  0.00  0.00     0.000 OA
ATOM     94   O  SGN B   5      38.870  -1.406  10.320  0.00  0.00     0.000 OA
ATOM     95   O  SGN B   5      37.550  -0.747   8.470  0.00  0.00     0.000 OA
ENDBRANCH 83 92
BRANCH 86 96
ATOM     96   C  SGN B   5      33.790  -0.249  14.360  0.00  0.00     0.000 C
ATOM     97   O  SGN B   5      33.250  -1.453  13.810  0.00  0.00     0.000 O
ATOM     98   S  SGN B   5      33.240  -2.730  14.780  0.00  0.00     0.000 S
ATOM     99   O  SGN B   5      32.470  -3.693  14.030  0.00  0.00     0.000 OA
ATOM    100   O  SGN B   5      34.590  -3.101  15.010  0.00  0.00     0.000 OA
ATOM    101   O  SGN B   5      32.580  -2.274  15.960  0.00  0.00     0.000 OA
ENDBRANCH 86 96
BRANCH 82 102
ATOM    102  O4  IDS B   6      37.610   0.892  13.270  0.00  0.00     0.000 O
BRANCH 102 106
ATOM    103  C1  IDS B   6      40.470   2.336  15.000  0.00  0.00     0.000 C
ATOM    104  C2  IDS B   6      40.670   1.348  13.840  0.00  0.00     0.000 C
ATOM    105  C3  IDS B   6      39.820   0.094  13.910  0.00  0.00     0.000 C
ATOM    106  C4  IDS B   6      38.400   0.373  14.370  0.00  0.00     0.000 C
ATOM    107  C5  IDS B   6      38.420   1.361  15.540  0.00  0.00     0.000 C
ATOM    108  O5  IDS B   6      39.090   2.576  15.200  0.00  0.00     0.000 O
ATOM    109   O  IDS B   6      40.460  -0.825  14.780  0.00  0.00     0.000 O
ATOM    111  HD  IDS B   6      40.960  -0.325  15.280  0.00  0.00     0.000 HD
BRANCH 104 111
ATOM    111   O  IDS B   6      40.290   2.005  12.580  0.00  0.00     0.000 O
ATOM    112   S  IDS B   6      41.460   2.488  11.600  0.00  0.00     0.000 S
ATOM    113   O  IDS B   6      42.250   3.411  12.400  0.00  0.00     0.000 OA
ATOM    114   O  IDS B   6      42.190   1.305  11.130  0.00  0.00     0.000 OA
ATOM    115   O  IDS B   6      40.660   3.131  10.580  0.00  0.00     0.000 OA
ENDBRANCH 104 111
BRANCH 107 116
ATOM    116   C  IDS B   6      36.990   1.662  15.970  0.00  0.00     0.000 C
ATOM    117   O  IDS B   6      36.430   0.816  16.620  0.00  0.00     0.000 OA
ATOM    118   O  IDS B   6      36.440   2.707  15.660  0.00  0.00     0.000 OA
ENDBRANCH 107 116
BRANCH 103 119
ATOM    119  O4  SGN B   7      41.250   1.831  15.990  0.00  0.00     0.000 O
BRANCH 119 123
ATOM    120  C1  SGN B   7      42.340   3.109  19.820  0.00  0.00     0.000 C
ATOM    121  C2  SGN B   7      41.210   2.068  19.710  0.00  0.00     0.000 C
ATOM    122  C3  SGN B   7      41.210   1.419  18.320  0.00  0.00     0.000 C
ATOM    123  C4  SGN B   7      41.160   2.497  17.250  0.00  0.00     0.000 C
ATOM    124  C5  SGN B   7      42.320   3.486  17.450  0.00  0.00     0.000 C
ATOM    125  O5  SGN B   7      42.280   4.073  18.770  0.00  0.00     0.000 O
ATOM    126   O  SGN B   7      40.090   0.532  18.220  0.00  0.00     0.000 O
ATOM    128  HD  SGN B   7      40.590   1.032  18.720  0.00  0.00     0.000 HD
BRANCH 121 130
ATOM    128   N  SGN B   7      41.280   1.009  20.720  0.00  0.00     0.000 N
ATOM    130  HD  SGN B   7      41.780   1.509  21.220  0.00  0.00     0.000 HD
ATOM    130   S  SGN B   7      40.490   1.103  22.120  0.00  0.00     0.000 S
ATOM    131   O  SGN B   7      39.150   1.430  21.770  0.00  0.00     0.000 OA
ATOM    132   O  SGN B   7      40.770  -0.068  22.870  0.00  0.00     0.000 OA
ATOM    133   O  SGN B   7      41.310   2.233  22.830  0.00  0.00     0.000 OA
ENDBRANCH 121 130
BRANCH 124 134
ATOM    134   C  SGN B   7      42.290   4.655  16.510  0.00  0.00     0.000 C
ATOM    135   O  SGN B   7      41.030   5.331  16.660  0.00  0.00     0.000 O
ATOM    136   S  SGN B   7      40.860   6.678  15.870  0.00  0.00     0.000 S
ATOM    137   O  SGN B   7      39.500   7.109  16.090  0.00  0.00     0.000 OA
ATOM    138   O  SGN B   7      41.130   6.344  14.490  0.00  0.00     0.000 OA
ATOM    139   O  SGN B   7      41.860   7.533  16.490  0.00  0.00     0.000 OA
ENDBRANCH 124 134
BRANCH 120 140
ATOM    140  O4  IDS B   8      43.660   2.893  19.830  0.00  0.00     0.000 O
BRANCH 140 144
ATOM    141  C1  IDS B   8      46.750   1.373  20.880  0.00  0.00     0.000 C
ATOM    142  C2  IDS B   8      45.610   1.654  21.900  0.00  0.00     0.000 C
ATOM    143  C3  IDS B   8      45.050   3.085  21.800  0.00  0.00     0.000 C
ATOM    144  C4  IDS B   8      44.840   3.518  20.350  0.00  0.00     0.000 C
ATOM    145  C5  IDS B   8      46.060   3.132  19.500  0.00  0.00     0.000 C
ATOM    146  O5  IDS B   8      46.330   1.734  19.570  0.00  0.00     0.000 O
BRANCH 142 147
ATOM    147   O  IDS B   8      44.480   0.721  21.650  0.00  0.00     0.000 O
ATOM    148   S  IDS B   8      44.400  -0.715  22.400  0.00  0.00     0.000 S
ATOM    149   O  IDS B   8      45.710  -1.001  22.940  0.00  0.00     0.000 OA
ATOM    150   O  IDS B   8      43.390  -0.558  23.430  0.00  0.00     0.000 OA
ATOM    151   O  IDS B   8      44.020  -1.663  21.370  0.00  0.00     0.000 OA
ENDBRANCH 142 147
BRANCH 145 152
ATOM    152   C  IDS B   8      45.870   3.447  18.030  0.00  0.00     0.000 C
ATOM    153   O  IDS B   8      45.990   2.553  17.200  0.00  0.00     0.000 OA
ATOM    154   O  IDS B   8      45.580   4.580  17.690  0.00  0.00     0.000 OA
ENDBRANCH 145 152
ENDBRANCH 140 144
ENDBRANCH 120 140
ENDBRANCH 119 123
ENDBRANCH 103 119
ENDBRANCH 102 106
ENDBRANCH 82 102
ENDBRANCH 81 85
ENDBRANCH 65 81
ENDBRANCH 64 68
ENDBRANCH 41 64
ENDBRANCH 40 44
ENDBRANCH 24 40
ENDBRANCH 23 27
ENDBRANCH 1 23
TORSDOF 31