ROOT
ATOM      1  C1  BDP B   1       0.250  -7.923  23.380  0.00  0.00     0.000 C
ATOM      2  C2  BDP B   1       0.540  -7.067  22.160  0.00  0.00     0.000 C
ATOM      3  C3  BDP B   1      -0.680  -6.897  21.280  0.00  0.00     0.000 C
ATOM      4  C4  BDP B   1      -1.990  -7.296  21.950  0.00  0.00     0.000 C
ATOM      5  C5  BDP B   1      -1.900  -8.638  22.670  0.00  0.00     0.000 C
ATOM      6  O5  BDP B   1      -0.540  -9.018  22.940  0.00  0.00     0.000 O
ATOM      7   O  BDP B   1       1.020  -5.782  22.570  0.00  0.00     0.000 O
ATOM      9  HD  BDP B   1       1.520  -5.282  23.070  0.00  0.00     0.000 HD
ATOM      9   O  BDP B   1      -0.540  -7.689  20.090  0.00  0.00     0.000 O
ATOM     11  HD  BDP B   1      -0.040  -7.189  20.590  0.00  0.00     0.000 HD
ATOM     11   O  BDP B   1      -2.410  -6.281  22.870  0.00  0.00     0.000 O
ATOM     13  HD  BDP B   1      -1.910  -5.781  23.370  0.00  0.00     0.000 HD
ENDROOT
BRANCH 5 13
ATOM     13   C  BDP B   1      -2.540  -9.654  21.790  0.00  0.00     0.000 C
ATOM     14   O  BDP B   1      -3.740  -9.935  21.990  0.00  0.00     0.000 OA
ATOM     15   O  BDP B   1      -1.870 -10.170  20.870  0.00  0.00     0.000 OA
ENDBRANCH 5 13
BRANCH 1 16
ATOM     16  O3  NAG B   2       0.370  -7.627  24.770  0.00  0.00     0.000 O
BRANCH 16 19
ATOM     17  C1  NAG B   2       1.010  -8.562  28.230  0.00  0.00     0.000 C
ATOM     18  C2  NAG B   2       1.110  -7.548  27.090  0.00  0.00     0.000 C
ATOM     19  C3  NAG B   2      -0.060  -7.705  26.130  0.00  0.00     0.000 C
ATOM     20  C4  NAG B   2      -0.810  -9.020  26.360  0.00  0.00     0.000 C
ATOM     21  C5  NAG B   2       0.070 -10.209  26.770  0.00  0.00     0.000 C
ATOM     22  O5  NAG B   2       1.170  -9.840  27.610  0.00  0.00     0.000 O
ATOM     23   O  NAG B   2      -1.820  -8.800  27.350  0.00  0.00     0.000 O
ATOM     25  HD  NAG B   2      -1.320  -8.300  27.850  0.00  0.00     0.000 HD
ATOM     25   C  NAG B   2       0.620 -10.928  25.530  0.00  0.00     0.000 C
ATOM     26   O  NAG B   2      -0.310 -11.894  25.020  0.00  0.00     0.000 O
ATOM     28  HD  NAG B   2       0.190 -11.394  25.520  0.00  0.00     0.000 HD
BRANCH 18 30
ATOM     28   N  NAG B   2       1.240  -6.180  27.590  0.00  0.00     0.000 N
ATOM     30  HD  NAG B   2       1.740  -5.680  28.090  0.00  0.00     0.000 HD
ATOM     30   C  NAG B   2       0.410  -5.602  28.470  0.00  0.00     0.000 C
ATOM     31   C  NAG B   2       0.750  -4.181  28.820  0.00  0.00     0.000 C
ATOM     32   O  NAG B   2      -0.540  -6.167  28.960  0.00  0.00     0.000 OA
ENDBRANCH 18 30
BRANCH 17 33
ATOM     33  O4  BDP B   3       1.590  -9.353  29.290  0.00  0.00     0.000 O
BRANCH 33 37
ATOM     34  C1  BDP B   3       5.140 -10.791  31.180  0.00  0.00     0.000 C
ATOM     35  C2  BDP B   3       3.850 -10.841  31.990  0.00  0.00     0.000 C
ATOM     36  C3  BDP B   3       2.590 -10.722  31.140  0.00  0.00     0.000 C
ATOM     37  C4  BDP B   3       2.760  -9.577  30.130  0.00  0.00     0.000 C
ATOM     38  C5  BDP B   3       4.030  -9.875  29.310  0.00  0.00     0.000 C
ATOM     39  O5  BDP B   3       5.120  -9.728  30.220  0.00  0.00     0.000 O
ATOM     40   O  BDP B   3       3.890 -12.063  32.730  0.00  0.00     0.000 O
ATOM     42  HD  BDP B   3       4.390 -11.563  33.230  0.00  0.00     0.000 HD
ATOM     42   O  BDP B   3       1.510 -10.480  32.040  0.00  0.00     0.000 O
ATOM     44  HD  BDP B   3       2.010  -9.980  32.540  0.00  0.00     0.000 HD
BRANCH 38 44
ATOM     44   C  BDP B   3       4.230  -8.976  28.130  0.00  0.00     0.000 C
ATOM     45   O  BDP B   3       4.190  -9.489  26.990  0.00  0.00     0.000 OA
ATOM     46   O  BDP B   3       4.430  -7.755  28.310  0.00  0.00     0.000 OA
ENDBRANCH 38 44
BRANCH 34 47
ATOM     47  O3  NAG B   4       6.170 -10.076  31.860  0.00  0.00     0.000 O
BRANCH 47 50
ATOM     48  C1  NAG B   4       9.830 -10.941  31.790  0.00  0.00     0.000 C
ATOM     49  C2  NAG B   4       8.390 -10.988  32.270  0.00  0.00     0.000 C
ATOM     50  C3  NAG B   4       7.530 -10.098  31.380  0.00  0.00     0.000 C
ATOM     51  C4  NAG B   4       8.070  -8.678  31.320  0.00  0.00     0.000 C
ATOM     52  C5  NAG B   4       9.540  -8.699  30.900  0.00  0.00     0.000 C
ATOM     53  O5  NAG B   4      10.290  -9.576  31.750  0.00  0.00     0.000 O
ATOM     54   O  NAG B   4       7.290  -7.922  30.390  0.00  0.00     0.000 O
ATOM     56  HD  NAG B   4       7.790  -7.422  30.890  0.00  0.00     0.000 HD
ATOM     56   C  NAG B   4      10.150  -7.303  30.950  0.00  0.00     0.000 C
ATOM     57   O  NAG B   4      10.060  -6.801  32.290  0.00  0.00     0.000 O
ATOM     59  HD  NAG B   4      10.560  -6.301  32.790  0.00  0.00     0.000 HD
BRANCH 49 61
ATOM     59   N  NAG B   4       7.830 -12.340  32.280  0.00  0.00     0.000 N
ATOM     61  HD  NAG B   4       8.330 -11.840  32.780  0.00  0.00     0.000 HD
ATOM     61   O  NAG B   4       7.240 -12.374  34.460  0.00  0.00     0.000 OA
ATOM     62   C  NAG B   4       7.240 -12.886  33.350  0.00  0.00     0.000 C
ATOM     63   C  NAG B   4       6.540 -14.186  33.110  0.00  0.00     0.000 C
ENDBRANCH 49 61
BRANCH 48 64
ATOM     64  O4  BDP B   5      10.900 -11.880  31.840  0.00  0.00     0.000 O
BRANCH 64 68
ATOM     65  C1  BDP B   5      14.860 -12.855  32.700  0.00  0.00     0.000 C
ATOM     66  C2  BDP B   5      14.610 -11.425  32.240  0.00  0.00     0.000 C
ATOM     67  C3  BDP B   5      13.130 -11.093  32.380  0.00  0.00     0.000 C
ATOM     68  C4  BDP B   5      12.290 -12.106  31.610  0.00  0.00     0.000 C
ATOM     69  C5  BDP B   5      12.620 -13.541  32.000  0.00  0.00     0.000 C
ATOM     70  O5  BDP B   5      14.040 -13.765  31.950  0.00  0.00     0.000 O
ATOM     71   O  BDP B   5      15.430 -10.524  33.000  0.00  0.00     0.000 O
ATOM     73  HD  BDP B   5      15.930 -10.024  33.500  0.00  0.00     0.000 HD
ATOM     73   O  BDP B   5      12.860  -9.778  31.880  0.00  0.00     0.000 O
ATOM     75  HD  BDP B   5      13.360  -9.278  32.380  0.00  0.00     0.000 HD
BRANCH 69 75
ATOM     75   C  BDP B   5      11.930 -14.466  31.030  0.00  0.00     0.000 C
ATOM     76   O  BDP B   5      12.370 -15.625  30.890  0.00  0.00     0.000 OA
ATOM     77   O  BDP B   5      10.940 -14.050  30.400  0.00  0.00     0.000 OA
ENDBRANCH 69 75
BRANCH 65 78
ATOM     78  O3  NAG B   6      15.880 -13.735  32.220  0.00  0.00     0.000 O
BRANCH 78 81
ATOM     79  C1  NAG B   6      18.520 -16.106  33.540  0.00  0.00     0.000 C
ATOM     80  C2  NAG B   6      17.900 -14.767  33.110  0.00  0.00     0.000 C
ATOM     81  C3  NAG B   6      16.430 -14.952  32.770  0.00  0.00     0.000 C
ATOM     82  C4  NAG B   6      16.240 -16.106  31.780  0.00  0.00     0.000 C
ATOM     83  C5  NAG B   6      16.890 -17.366  32.340  0.00  0.00     0.000 C
ATOM     84  O5  NAG B   6      18.280 -17.092  32.520  0.00  0.00     0.000 O
BRANCH 80 87
ATOM     85   N  NAG B   6      18.030 -13.771  34.170  0.00  0.00     0.000 N
ATOM     87  HD  NAG B   6      18.530 -13.271  34.670  0.00  0.00     0.000 HD
ATOM     87   C  NAG B   6      18.500 -12.532  33.980  0.00  0.00     0.000 C
ATOM     88   C  NAG B   6      18.520 -11.653  35.190  0.00  0.00     0.000 C
ATOM     89   O  NAG B   6      18.880 -12.121  32.890  0.00  0.00     0.000 OA
ENDBRANCH 80 87
ATOM     90   O  NAG B   6      15.870 -19.542  32.070  0.00  0.00     0.000 O
ATOM     92  HD  NAG B   6      16.370 -19.042  32.570  0.00  0.00     0.000 HD
ATOM     92   O  NAG B   6      15.870 -19.542  32.070  0.00  0.00     0.000 O
ATOM     94  HD  NAG B   6      16.370 -19.042  32.570  0.00  0.00     0.000 HD
ENDBRANCH 78 81
ENDBRANCH 65 78
ENDBRANCH 64 68
ENDBRANCH 48 64
ENDBRANCH 47 50
ENDBRANCH 34 47
ENDBRANCH 33 37
ENDBRANCH 17 33
ENDBRANCH 16 19
ENDBRANCH 1 16
TORSDOF 16