ROOT
ATOM      1  C1  NAG B   1      11.900 -17.123  -4.590  0.00  0.00     0.000 C
ATOM      2  C2  NAG B   1      12.890 -18.202  -5.020  0.00  0.00     0.000 C
ATOM      3  C3  NAG B   1      12.620 -18.686  -6.430  0.00  0.00     0.000 C
ATOM      4  C4  NAG B   1      11.180 -19.189  -6.420  0.00  0.00     0.000 C
ATOM      5  C5  NAG B   1      10.240 -18.017  -6.110  0.00  0.00     0.000 C
ATOM      6  O5  NAG B   1      10.520 -17.455  -4.810  0.00  0.00     0.000 O
ATOM      7   O  NAG B   1      13.530 -19.736  -6.830  0.00  0.00     0.000 O
ATOM      9  HD  NAG B   1      14.030 -19.236  -6.330  0.00  0.00     0.000 HD
ATOM      9   O  NAG B   1      10.850 -19.749  -7.680  0.00  0.00     0.000 O
ATOM     11  HD  NAG B   1      11.350 -19.249  -7.180  0.00  0.00     0.000 HD
ATOM     11   C  NAG B   1       8.780 -18.471  -6.230  0.00  0.00     0.000 C
ATOM     12   O  NAG B   1       7.930 -17.714  -5.370  0.00  0.00     0.000 O
ATOM     14  HD  NAG B   1       8.430 -17.214  -4.870  0.00  0.00     0.000 HD
ENDROOT
BRANCH 2 16
ATOM     14   N  NAG B   1      14.270 -17.710  -4.860  0.00  0.00     0.000 N
ATOM     16  HD  NAG B   1      14.770 -17.210  -4.360  0.00  0.00     0.000 HD
ATOM     16   C  NAG B   1      15.140 -18.235  -3.980  0.00  0.00     0.000 C
ATOM     17   C  NAG B   1      14.710 -19.363  -3.080  0.00  0.00     0.000 C
ATOM     18   O  NAG B   1      16.300 -17.830  -3.910  0.00  0.00     0.000 OA
ENDBRANCH 2 16
BRANCH 1 19
ATOM     19  O4  BDP B   2      12.070 -17.071  -3.180  0.00  0.00     0.000 O
BRANCH 19 23
ATOM     20  C1  BDP B   2      11.100 -14.425  -0.180  0.00  0.00     0.000 C
ATOM     21  C2  BDP B   2       9.940 -15.081  -0.900  0.00  0.00     0.000 C
ATOM     22  C3  BDP B   2      10.390 -16.308  -1.660  0.00  0.00     0.000 C
ATOM     23  C4  BDP B   2      11.550 -15.914  -2.570  0.00  0.00     0.000 C
ATOM     24  C5  BDP B   2      12.650 -15.282  -1.740  0.00  0.00     0.000 C
ATOM     25  O5  BDP B   2      12.150 -14.129  -1.090  0.00  0.00     0.000 O
ATOM     26   O  BDP B   2       8.930 -15.435   0.020  0.00  0.00     0.000 O
ATOM     28  HD  BDP B   2       9.430 -14.935   0.520  0.00  0.00     0.000 HD
ATOM     28   O  BDP B   2       9.280 -16.840  -2.400  0.00  0.00     0.000 O
ATOM     30  HD  BDP B   2       9.780 -16.340  -1.900  0.00  0.00     0.000 HD
BRANCH 24 30
ATOM     30   C  BDP B   2      13.810 -14.863  -2.570  0.00  0.00     0.000 C
ATOM     31   O  BDP B   2      14.900 -15.447  -2.370  0.00  0.00     0.000 OA
ATOM     32   O  BDP B   2      13.640 -13.943  -3.420  0.00  0.00     0.000 OA
ENDBRANCH 24 30
BRANCH 20 33
ATOM     33  O3  NAG B   3      10.560 -13.222   0.310  0.00  0.00     0.000 O
BRANCH 33 36
ATOM     34  C1  NAG B   3      11.430 -11.682   3.630  0.00  0.00     0.000 C
ATOM     35  C2  NAG B   3      10.650 -12.502   2.620  0.00  0.00     0.000 C
ATOM     36  C3  NAG B   3      11.410 -12.621   1.290  0.00  0.00     0.000 C
ATOM     37  C4  NAG B   3      11.810 -11.228   0.810  0.00  0.00     0.000 C
ATOM     38  C5  NAG B   3      12.510 -10.463   1.930  0.00  0.00     0.000 C
ATOM     39  O5  NAG B   3      11.670 -10.399   3.070  0.00  0.00     0.000 O
ATOM     40   O  NAG B   3      12.690 -11.332  -0.320  0.00  0.00     0.000 O
ATOM     42  HD  NAG B   3      13.190 -10.832   0.180  0.00  0.00     0.000 HD
ATOM     42   C  NAG B   3      12.830  -9.012   1.580  0.00  0.00     0.000 C
ATOM     43   O  NAG B   3      11.610  -8.280   1.410  0.00  0.00     0.000 O
ATOM     45  HD  NAG B   3      12.110  -7.780   1.910  0.00  0.00     0.000 HD
BRANCH 35 47
ATOM     45   N  NAG B   3      10.320 -13.774   3.250  0.00  0.00     0.000 N
ATOM     47  HD  NAG B   3      10.820 -13.274   3.750  0.00  0.00     0.000 HD
ATOM     47   C  NAG B   3       9.140 -14.349   3.130  0.00  0.00     0.000 C
ATOM     48   C  NAG B   3       8.960 -15.647   3.860  0.00  0.00     0.000 C
ATOM     49   O  NAG B   3       8.230 -13.839   2.480  0.00  0.00     0.000 OA
ENDBRANCH 35 47
BRANCH 34 50
ATOM     50  O4  BDP B   4      10.550 -11.582   4.730  0.00  0.00     0.000 O
BRANCH 50 54
ATOM     51  C1  BDP B   4      10.400 -11.366   8.790  0.00  0.00     0.000 C
ATOM     52  C2  BDP B   4      10.530 -10.018   8.090  0.00  0.00     0.000 C
ATOM     53  C3  BDP B   4      10.200 -10.197   6.640  0.00  0.00     0.000 C
ATOM     54  C4  BDP B   4      11.100 -11.310   6.030  0.00  0.00     0.000 C
ATOM     55  C5  BDP B   4      11.100 -12.580   6.870  0.00  0.00     0.000 C
ATOM     56  O5  BDP B   4      11.340 -12.271   8.240  0.00  0.00     0.000 O
ATOM     57   O  BDP B   4       9.640  -9.082   8.660  0.00  0.00     0.000 O
ATOM     59  HD  BDP B   4      10.140  -8.582   9.160  0.00  0.00     0.000 HD
ATOM     59   O  BDP B   4      10.520  -8.955   5.980  0.00  0.00     0.000 O
ATOM     61  HD  BDP B   4      11.020  -8.455   6.480  0.00  0.00     0.000 HD
BRANCH 55 61
ATOM     61   C  BDP B   4      12.190 -13.511   6.370  0.00  0.00     0.000 C
ATOM     62   O  BDP B   4      11.900 -14.320   5.450  0.00  0.00     0.000 OA
ATOM     63   O  BDP B   4      13.340 -13.429   6.900  0.00  0.00     0.000 OA
ENDBRANCH 55 61
BRANCH 51 64
ATOM     64  O3  NAG B   5      10.660 -11.147  10.190  0.00  0.00     0.000 O
BRANCH 64 67
ATOM     65  C1  NAG B   5       8.960 -12.965  12.910  0.00  0.00     0.000 C
ATOM     66  C2  NAG B   5       9.200 -11.894  11.860  0.00  0.00     0.000 C
ATOM     67  C3  NAG B   5      10.380 -12.286  10.980  0.00  0.00     0.000 C
ATOM     68  C4  NAG B   5      11.610 -12.633  11.830  0.00  0.00     0.000 C
ATOM     69  C5  NAG B   5      11.250 -13.641  12.910  0.00  0.00     0.000 C
ATOM     70  O5  NAG B   5      10.130 -13.164  13.670  0.00  0.00     0.000 O
ATOM     71   O  NAG B   5      12.620 -13.133  10.980  0.00  0.00     0.000 O
ATOM     73  HD  NAG B   5      13.120 -12.633  11.480  0.00  0.00     0.000 HD
ATOM     73   C  NAG B   5      12.390 -13.952  13.890  0.00  0.00     0.000 C
ATOM     74   O  NAG B   5      12.730 -12.761  14.630  0.00  0.00     0.000 O
ATOM     76  HD  NAG B   5      13.230 -12.261  15.130  0.00  0.00     0.000 HD
BRANCH 66 78
ATOM     76   N  NAG B   5       7.930 -11.764  11.120  0.00  0.00     0.000 N
ATOM     78  HD  NAG B   5       8.430 -11.264  11.620  0.00  0.00     0.000 HD
ATOM     78   C  NAG B   5       7.270 -10.620  10.880  0.00  0.00     0.000 C
ATOM     79   C  NAG B   5       6.010 -10.811  10.080  0.00  0.00     0.000 C
ATOM     80   O  NAG B   5       7.670  -9.476  11.300  0.00  0.00     0.000 OA
ENDBRANCH 66 78
BRANCH 65 81
ATOM     81  O4  BDP B   6       7.880 -12.579  13.770  0.00  0.00     0.000 O
BRANCH 81 85
ATOM     82  C1  BDP B   6       5.280 -14.229  16.750  0.00  0.00     0.000 C
ATOM     83  C2  BDP B   6       6.780 -14.255  17.030  0.00  0.00     0.000 C
ATOM     84  C3  BDP B   6       7.570 -13.301  16.130  0.00  0.00     0.000 C
ATOM     85  C4  BDP B   6       7.240 -13.506  14.650  0.00  0.00     0.000 C
ATOM     86  C5  BDP B   6       5.700 -13.495  14.500  0.00  0.00     0.000 C
ATOM     87  O5  BDP B   6       5.060 -14.483  15.370  0.00  0.00     0.000 O
ATOM     88   O  BDP B   6       6.920 -13.853  18.390  0.00  0.00     0.000 O
ATOM     90  HD  BDP B   6       7.420 -13.353  18.890  0.00  0.00     0.000 HD
ATOM     90   O  BDP B   6       8.970 -13.464  16.370  0.00  0.00     0.000 O
ATOM     92  HD  BDP B   6       9.470 -12.964  16.870  0.00  0.00     0.000 HD
BRANCH 86 92
ATOM     92   C  BDP B   6       5.300 -13.927  13.110  0.00  0.00     0.000 C
ATOM     93   O  BDP B   6       5.570 -15.103  12.720  0.00  0.00     0.000 OA
ATOM     94   O  BDP B   6       4.680 -13.084  12.390  0.00  0.00     0.000 OA
ENDBRANCH 86 92
BRANCH 82 95
ATOM     95  O3  NAG B   7       4.660 -15.292  17.500  0.00  0.00     0.000 O
BRANCH 95 98
ATOM     96  C1  NAG B   7       1.630 -15.889  19.450  0.00  0.00     0.000 C
ATOM     97  C2  NAG B   7       3.100 -16.036  19.080  0.00  0.00     0.000 C
ATOM     98  C3  NAG B   7       3.270 -15.205  17.810  0.00  0.00     0.000 C
ATOM     99  C4  NAG B   7       2.360 -15.746  16.710  0.00  0.00     0.000 C
ATOM    100  C5  NAG B   7       0.910 -15.824  17.190  0.00  0.00     0.000 C
ATOM    101  O5  NAG B   7       0.870 -16.531  18.420  0.00  0.00     0.000 O
BRANCH 97 104
ATOM    102   N  NAG B   7       3.980 -15.569  20.160  0.00  0.00     0.000 N
ATOM    104  HD  NAG B   7       4.480 -15.069  20.660  0.00  0.00     0.000 HD
ATOM    104   O  NAG B   7       5.860 -15.480  21.420  0.00  0.00     0.000 OA
ATOM    105   C  NAG B   7       5.200 -16.019  20.510  0.00  0.00     0.000 C
ATOM    106   C  NAG B   7       5.780 -17.182  19.780  0.00  0.00     0.000 C
ENDBRANCH 97 104
ATOM    107   O  NAG B   7      -1.290 -16.257  16.500  0.00  0.00     0.000 O
ATOM    109  HD  NAG B   7      -0.790 -15.757  17.000  0.00  0.00     0.000 HD
ATOM    109   O  NAG B   7      -1.290 -16.257  16.500  0.00  0.00     0.000 O
ATOM    111  HD  NAG B   7      -0.790 -15.757  17.000  0.00  0.00     0.000 HD
ENDBRANCH 95 98
ENDBRANCH 82 95
ENDBRANCH 81 85
ENDBRANCH 65 81
ENDBRANCH 64 67
ENDBRANCH 51 64
ENDBRANCH 50 54
ENDBRANCH 34 50
ENDBRANCH 33 36
ENDBRANCH 20 33
ENDBRANCH 19 23
ENDBRANCH 1 19
TORSDOF 19